####################################################################### 
# 
# This file contains crystal structure data downloaded from the 
# Cambridge Structural Database (CSD) hosted by the Cambridge 
# Crystallographic Data Centre (CCDC).
# 
# Full information about CCDC data access policies and citation 
# guidelines are available at http://www.ccdc.cam.ac.uk/access/V1 
# 
# Audit and citation data items may have been added by the CCDC. 
# Please retain this information to preserve the provenance of 
# this file and to allow appropriate attribution of the data. 
# 
#######################################################################

data_zn
_audit_block_doi                 10.5517/ccdc.csd.cc23qc29
_database_code_depnum_ccdc_archive 'CCDC 1957900'
loop_
_citation_id
_citation_doi
_citation_year
1 10.1002/aoc.5584 2020
loop_
_audit_author_name
_audit_author_address
'Xiao Zheng'
;Guilin, guangxi zhuang autonomous region,Guilin University of Technology
China
;
_audit_update_record             
;
2019-10-07 deposited with the CCDC.	2023-06-17 downloaded from the CCDC.
;
_audit_creation_date             2019-09-24
_audit_creation_method           
;
Olex2 1.2
(compiled 2018.05.29 svn.r3508 for OlexSys, GUI svn.r5506)
;
_shelx_SHELXL_version_number     2018/3
_chemical_name_common            ?
_chemical_name_systematic        
;
 ? 
;
_chemical_formula_moiety         'C46 H40 N2 O9 Zn2, C6 H15 N, 0.5(H2 O)'
_chemical_formula_sum            'C52 H56 N3 O9.50 Zn2'
_chemical_formula_weight         1005.73
_chemical_melting_point          ?
loop_
_atom_type_symbol
_atom_type_description
_atom_type_scat_dispersion_real
_atom_type_scat_dispersion_imag
_atom_type_scat_source
C C 0.0033 0.0016 'International Tables Vol C Tables 4.2.6.8 and 6.1.1.4'
H H 0.0000 0.0000 'International Tables Vol C Tables 4.2.6.8 and 6.1.1.4'
N N 0.0061 0.0033 'International Tables Vol C Tables 4.2.6.8 and 6.1.1.4'
O O 0.0106 0.0060 'International Tables Vol C Tables 4.2.6.8 and 6.1.1.4'
Zn Zn 0.2839 1.4301 'International Tables Vol C Tables 4.2.6.8 and 6.1.1.4'

_shelx_space_group_comment       
;
The symmetry employed for this shelxl refinement is uniquely defined
by the following loop, which should always be used as a source of
symmetry information in preference to the above space-group names.
They are only intended as comments.
;
_space_group_crystal_system      monoclinic
_space_group_IT_number           14
_space_group_name_H-M_alt        'P 1 21/c 1'
_space_group_name_Hall           '-P 2ybc'
loop_
_space_group_symop_operation_xyz
'x, y, z'
'-x, y+1/2, -z+1/2'
'-x, -y, -z'
'x, -y-1/2, z-1/2'

_cell_length_a                   10.0061(3)
_cell_length_b                   25.6847(7)
_cell_length_c                   19.0916(6)
_cell_angle_alpha                90
_cell_angle_beta                 90.775(3)
_cell_angle_gamma                90
_cell_volume                     4906.2(2)
_cell_formula_units_Z            4
_cell_measurement_reflns_used    ?
_cell_measurement_temperature    293(2)
_cell_measurement_theta_max      ?
_cell_measurement_theta_min      ?
_shelx_estimated_absorpt_T_max   ?
_shelx_estimated_absorpt_T_min   ?
_exptl_absorpt_coefficient_mu    1.037
_exptl_absorpt_correction_T_max  ?
_exptl_absorpt_correction_T_min  ?
_exptl_absorpt_correction_type   ?
_exptl_absorpt_process_details   ?
_exptl_absorpt_special_details   ?
_exptl_crystal_colour            ?
_exptl_crystal_density_diffrn    1.362
_exptl_crystal_density_meas      ?
_exptl_crystal_density_method    'not measured'
_exptl_crystal_description       ?
_exptl_crystal_F_000             2100
_exptl_crystal_size_max          ?
_exptl_crystal_size_mid          ?
_exptl_crystal_size_min          ?
_exptl_special_details           
;
 ? 
;
_exptl_transmission_factor_max   ?
_exptl_transmission_factor_min   ?
_diffrn_reflns_av_R_equivalents  0.0246
_diffrn_reflns_av_unetI/netI     0.0422
_diffrn_reflns_Laue_measured_fraction_full 0.918
_diffrn_reflns_Laue_measured_fraction_max 0.918
_diffrn_reflns_limit_h_max       11
_diffrn_reflns_limit_h_min       -11
_diffrn_reflns_limit_k_max       30
_diffrn_reflns_limit_k_min       -15
_diffrn_reflns_limit_l_max       22
_diffrn_reflns_limit_l_min       -13
_diffrn_reflns_number            15496
_diffrn_reflns_point_group_measured_fraction_full 0.918
_diffrn_reflns_point_group_measured_fraction_max 0.918
_diffrn_reflns_theta_full        25.000
_diffrn_reflns_theta_max         25.000
_diffrn_reflns_theta_min         3.298
_diffrn_ambient_temperature      293(2)
_diffrn_detector_area_resol_mean ?
_diffrn_measured_fraction_theta_full 0.918
_diffrn_measured_fraction_theta_max 0.918
_diffrn_measurement_device_type  ?
_diffrn_measurement_method       ?
_diffrn_radiation_type           MoK\a
_diffrn_radiation_wavelength     0.71073
_diffrn_source                   ?
_reflns_Friedel_coverage         0.000
_reflns_Friedel_fraction_full    .
_reflns_Friedel_fraction_max     .
_reflns_number_gt                5897
_reflns_number_total             7922
_reflns_special_details          
;
 Reflections were merged by SHELXL according to the crystal
 class for the calculation of statistics and refinement.
 
 _reflns_Friedel_fraction is defined as the number of unique
 Friedel pairs measured divided by the number that would be
 possible theoretically, ignoring centric projections and
 systematic absences.
;
_reflns_threshold_expression     'I > 2\s(I)'
_computing_cell_refinement       ?
_computing_data_collection       ?
_computing_data_reduction        ?
_computing_molecular_graphics    'Olex2 (Dolomanov et al., 2009)'
_computing_publication_material  'Olex2 (Dolomanov et al., 2009)'
_computing_structure_refinement  'ShelXL (Sheldrick, 2015)'
_computing_structure_solution    'SHELXS-97 (Sheldrick, 1990)'
_refine_diff_density_max         0.524
_refine_diff_density_min         -0.364
_refine_diff_density_rms         0.054
_refine_ls_extinction_coef       .
_refine_ls_extinction_method     none
_refine_ls_goodness_of_fit_ref   1.036
_refine_ls_hydrogen_treatment    constr
_refine_ls_matrix_type           full
_refine_ls_number_parameters     609
_refine_ls_number_reflns         7922
_refine_ls_number_restraints     9
_refine_ls_R_factor_all          0.0698
_refine_ls_R_factor_gt           0.0463
_refine_ls_restrained_S_all      1.046
_refine_ls_shift/su_max          0.002
_refine_ls_shift/su_mean         0.000
_refine_ls_structure_factor_coef Fsqd
_refine_ls_weighting_details     
'w=1/[\s^2^(Fo^2^)+(0.0501P)^2^+3.1236P] where P=(Fo^2^+2Fc^2^)/3'
_refine_ls_weighting_scheme      calc
_refine_ls_wR_factor_gt          0.1090
_refine_ls_wR_factor_ref         0.1177
_refine_special_details          ?
_olex2_refinement_description    
;
1. Fixed Uiso
 At 1.2 times of:
  All C(H) groups, All C(H,H) groups
 At 1.5 times of:
  All C(H,H,H) groups, All O(H,H,H,H) groups
2. Restrained distances
 C52-C51
 1.4 with sigma of 0.02
 C51-C52
 1.5 with sigma of 0.02
 H48A-H52B
 2.1 with sigma of 0.02
3. Uiso/Uaniso restraints and constraints
H48A \\sim H52B \\sim O5 \\sim O6: within 1.7A with sigma of 0.04 and sigma for
terminal atoms of 0.08
O5 \\sim O6: within 1.7A with sigma of 0.02 and sigma for terminal atoms of 0.04
Uanis(O6) \\sim Ueq: with sigma of 0.005 and sigma for terminal atoms of 0.01
4. Others
 Fixed Sof: O10(0.5) H10A(0.5) H10B(0.5)
5.a Riding coordinates:
 O10(H5A,H5B,H10A,H10B)
5.b Secondary CH2 refined with riding coordinates:
 C8(H8A,H8B), C31(H31A,H31B), C9(H9A,H9B), C32(H32A,H32B), C48(H48A,H48B),
 C50(H50A,H50B), C52(H52A,H52B)
5.c Aromatic/amide H refined with riding coordinates:
 C46(H46), C15(H15), C3(H3), C16(H16), C23(H23), C11(H11), C42(H42), C12(H12),
 C45(H45), C41(H41), C22(H22), C18(H18), C4(H4), C29(H29), C19(H19), C26(H26),
 C27(H27), C7(H7), C30(H30), C34(H34), C39(H39), C35(H35), C38(H38), C6(H6)
5.d Idealised Me refined as rotating group:
 C44(H44A,H44B,H44C), C21(H21A,H21B,H21C), C49(H49A,H49B,H49C), C47(H47A,H47B,
 H47C), C51(H51A,H51B,H51C)
;
_atom_sites_solution_hydrogens   mixed
_atom_sites_solution_primary     ?
_atom_sites_solution_secondary   ?
loop_
_atom_site_label
_atom_site_type_symbol
_atom_site_fract_x
_atom_site_fract_y
_atom_site_fract_z
_atom_site_U_iso_or_equiv
_atom_site_adp_type
_atom_site_occupancy
_atom_site_site_symmetry_order
_atom_site_calc_flag
_atom_site_refinement_flags_posn
_atom_site_refinement_flags_adp
_atom_site_refinement_flags_occupancy
_atom_site_disorder_assembly
_atom_site_disorder_group
Zn1 Zn 0.25958(4) 0.54012(2) 0.69160(2) 0.04172(13) Uani 1 1 d . . . . .
Zn2 Zn 0.26447(4) 0.46615(2) 0.81126(2) 0.03865(12) Uani 1 1 d . . . . .
O1 O 0.3194(2) 0.59892(10) 0.63732(14) 0.0574(7) Uani 1 1 d . . . . .
C2 C 0.4993(3) 0.61691(15) 0.56219(19) 0.0488(9) Uani 1 1 d . . . . .
C14 C 1.0889(3) 0.94536(14) 0.31698(19) 0.0405(8) Uani 1 1 d . . . . .
O7 O 0.3582(3) 0.40794(12) 0.8533(2) 0.0898(11) Uani 1 1 d . . . . .
C1 C 0.4155(4) 0.57985(16) 0.6026(2) 0.0557(10) Uani 1 1 d . . . . .
C13 C 0.9871(3) 0.91287(13) 0.35318(18) 0.0384(8) Uani 1 1 d . . . . .
N1 N 0.6499(3) 0.77274(13) 0.42119(17) 0.0562(9) Uani 1 1 d . . . . .
C46 C 1.0111(4) 0.30829(16) 0.9241(2) 0.0517(10) Uani 1 1 d . . . . .
H46 H 0.973669 0.338087 0.943383 0.062 Uiso 1 1 calc R . . . .
C15 C 0.9475(3) 0.86595(14) 0.32500(19) 0.0459(9) Uani 1 1 d . . . . .
H15 H 0.984955 0.854448 0.283470 0.055 Uiso 1 1 calc R . . . .
O2 O 0.4415(3) 0.53303(11) 0.60315(18) 0.0826(10) Uani 1 1 d . . . . .
N2 N 0.8771(3) 0.25442(13) 1.00056(17) 0.0544(8) Uani 1 1 d . . . . .
C17 C 0.5452(3) 0.77427(15) 0.37286(19) 0.0470(9) Uani 1 1 d . . . . .
C3 C 0.4911(3) 0.66978(15) 0.5736(2) 0.0512(10) Uani 1 1 d . . . . .
H3 H 0.435558 0.682482 0.608355 0.061 Uiso 1 1 calc R . . . .
C24 C 0.4284(4) 0.42767(19) 0.8994(2) 0.0629(11) Uani 1 1 d . . . . .
C10 C 0.7962(3) 0.85171(16) 0.41925(19) 0.0483(9) Uani 1 1 d . . . . .
C28 C 0.7295(3) 0.33340(15) 0.99768(19) 0.0476(9) Uani 1 1 d . . . . .
C43 C 1.1656(4) 0.27040(18) 0.8426(2) 0.0566(10) Uani 1 1 d . . . . .
C40 C 0.9701(3) 0.25961(15) 0.94746(18) 0.0451(9) Uani 1 1 d . . . . .
C5 C 0.6459(3) 0.68643(17) 0.4818(2) 0.0524(10) Uani 1 1 d . . . . .
C16 C 0.8525(4) 0.83571(15) 0.3577(2) 0.0533(10) Uani 1 1 d . . . . .
H16 H 0.826499 0.804177 0.337844 0.064 Uiso 1 1 calc R . . . .
C25 C 0.5355(4) 0.39529(15) 0.9328(2) 0.0526(10) Uani 1 1 d . . . . .
C23 C 0.4907(4) 0.82103(16) 0.3493(2) 0.0565(10) Uani 1 1 d . . . . .
H23 H 0.525449 0.852328 0.365876 0.068 Uiso 1 1 calc R . . . .
C11 C 0.8366(4) 0.89834(17) 0.4477(2) 0.0584(11) Uani 1 1 d . . . . .
H11 H 0.799461 0.909595 0.489438 0.070 Uiso 1 1 calc R . . . .
C8 C 0.7200(4) 0.72453(18) 0.4356(2) 0.0649(12) Uani 1 1 d . . . . .
H8A H 0.805161 0.732741 0.457850 0.078 Uiso 1 1 calc R . . . .
H8B H 0.738682 0.707565 0.391374 0.078 Uiso 1 1 calc R . . . .
C42 C 1.1227(4) 0.22224(18) 0.8652(2) 0.0608(11) Uani 1 1 d . . . . .
H42 H 1.158869 0.192512 0.845138 0.073 Uiso 1 1 calc R . . . .
C20 C 0.3304(4) 0.77703(17) 0.2750(2) 0.0538(10) Uani 1 1 d . . . . .
C12 C 0.9313(4) 0.92877(15) 0.4155(2) 0.0519(10) Uani 1 1 d . . . . .
H12 H 0.957673 0.960117 0.435731 0.062 Uiso 1 1 calc R . . . .
C45 C 1.1066(4) 0.31317(17) 0.8728(2) 0.0562(10) Uani 1 1 d . . . . .
H45 H 1.131781 0.346275 0.858318 0.067 Uiso 1 1 calc R . . . .
C41 C 1.0283(4) 0.21664(16) 0.9164(2) 0.0539(10) Uani 1 1 d . . . . .
H41 H 1.003142 0.183406 0.930332 0.065 Uiso 1 1 calc R . . . .
C22 C 0.3862(4) 0.82168(17) 0.3017(2) 0.0607(11) Uani 1 1 d . . . . .
H22 H 0.352044 0.853634 0.287200 0.073 Uiso 1 1 calc R . . . .
C18 C 0.4889(4) 0.72919(16) 0.3452(2) 0.0545(10) Uani 1 1 d . . . . .
H18 H 0.522411 0.697042 0.359413 0.065 Uiso 1 1 calc R . . . .
C4 C 0.5644(4) 0.70384(16) 0.5342(2) 0.0551(10) Uani 1 1 d . . . . .
H4 H 0.558724 0.739362 0.543132 0.066 Uiso 1 1 calc R . . . .
C31 C 0.8298(4) 0.30004(17) 1.0369(2) 0.0613(11) Uani 1 1 d . . . . .
H31A H 0.906398 0.321538 1.049006 0.074 Uiso 1 1 calc R . . . .
H31B H 0.789772 0.288873 1.080384 0.074 Uiso 1 1 calc R . . . .
C29 C 0.7056(4) 0.38384(16) 1.0197(2) 0.0620(11) Uani 1 1 d . . . . .
H29 H 0.755309 0.397327 1.057004 0.074 Uiso 1 1 calc R . . . .
C9 C 0.6940(4) 0.81864(18) 0.4570(2) 0.0641(12) Uani 1 1 d . . . . .
H9A H 0.732026 0.808378 0.501922 0.077 Uiso 1 1 calc R . . . .
H9B H 0.616495 0.840121 0.466233 0.077 Uiso 1 1 calc R . . . .
C19 C 0.3850(4) 0.73084(17) 0.2976(2) 0.0572(10) Uani 1 1 d . . . . .
H19 H 0.350594 0.699748 0.280097 0.069 Uiso 1 1 calc R . . . .
C26 C 0.5603(4) 0.34599(16) 0.9093(2) 0.0559(10) Uani 1 1 d . . . . .
H26 H 0.511254 0.332888 0.871533 0.067 Uiso 1 1 calc R . . . .
C27 C 0.6571(4) 0.31536(15) 0.9410(2) 0.0518(9) Uani 1 1 d . . . . .
H27 H 0.673551 0.282133 0.923837 0.062 Uiso 1 1 calc R . . . .
C7 C 0.5846(4) 0.59920(18) 0.5115(2) 0.0740(13) Uani 1 1 d . . . . .
H7 H 0.593425 0.563613 0.503815 0.089 Uiso 1 1 calc R . . . .
O6 O 0.4138(4) 0.47372(15) 0.91618(19) 0.1057(13) Uani 1 1 d . U . . .
C32 C 0.8115(4) 0.20495(16) 1.0121(2) 0.0597(11) Uani 1 1 d . . . . .
H32A H 0.791509 0.189249 0.966942 0.072 Uiso 1 1 calc R . . . .
H32B H 0.727230 0.211361 1.035037 0.072 Uiso 1 1 calc R . . . .
C30 C 0.6106(4) 0.41426(17) 0.9880(2) 0.0640(11) Uani 1 1 d . . . . .
H30 H 0.596614 0.448044 1.003779 0.077 Uiso 1 1 calc R . . . .
C44 C 1.2711(5) 0.2758(2) 0.7873(2) 0.0844(15) Uani 1 1 d . . . . .
H44A H 1.345089 0.253346 0.798604 0.127 Uiso 1 1 calc GR . . . .
H44B H 1.301382 0.311208 0.785714 0.127 Uiso 1 1 calc GR . . . .
H44C H 1.233990 0.266163 0.742541 0.127 Uiso 1 1 calc GR . . . .
C21 C 0.2141(4) 0.7786(2) 0.2235(2) 0.0801(14) Uani 1 1 d . . . . .
H21A H 0.132829 0.770839 0.247489 0.120 Uiso 1 1 calc GR . . . .
H21B H 0.227823 0.753260 0.187296 0.120 Uiso 1 1 calc GR . . . .
H21C H 0.207963 0.812648 0.202985 0.120 Uiso 1 1 calc GR . . . .
O4 O 1.1276(2) 0.92944(10) 0.25843(13) 0.0517(6) Uani 1 1 d . . . . .
O3 O 1.1270(2) 0.98633(10) 0.34692(13) 0.0511(6) Uani 1 1 d . . . . .
C33 C 0.8917(3) 0.16627(16) 1.0559(2) 0.0510(10) Uani 1 1 d . . . . .
C34 C 0.9440(4) 0.18012(15) 1.1209(2) 0.0536(10) Uani 1 1 d . . . . .
H34 H 0.929776 0.213520 1.138098 0.064 Uiso 1 1 calc R . . . .
C39 C 0.9127(4) 0.11642(16) 1.0327(2) 0.0598(11) Uani 1 1 d . . . . .
H39 H 0.875595 0.106163 0.989992 0.072 Uiso 1 1 calc R . . . .
C35 C 1.0170(4) 0.14481(15) 1.1605(2) 0.0502(9) Uani 1 1 d . . . . .
H35 H 1.050444 0.154585 1.204205 0.060 Uiso 1 1 calc R . . . .
C38 C 0.9873(4) 0.08105(15) 1.07119(19) 0.0530(10) Uani 1 1 d . . . . .
H38 H 1.001754 0.047734 1.053789 0.064 Uiso 1 1 calc R . . . .
C6 C 0.6569(4) 0.63372(19) 0.4720(2) 0.0729(13) Uani 1 1 d . . . . .
H6 H 0.714302 0.621092 0.438046 0.087 Uiso 1 1 calc R . . . .
C36 C 1.0406(3) 0.09535(14) 1.13584(19) 0.0432(8) Uani 1 1 d . . . . .
C37 C 1.1244(3) 0.05782(15) 1.1769(2) 0.0449(9) Uani 1 1 d . . . . .
O8 O 1.1632(2) 0.07210(10) 1.23690(14) 0.0558(7) Uani 1 1 d . . . . .
O9 O 1.1503(3) 0.01496(10) 1.14954(14) 0.0603(7) Uani 1 1 d . . . . .
O5 O 0.3889(2) 0.51217(10) 0.76062(13) 0.0487(6) Uani 1 1 d . U . . .
N3 N 0.6577(4) 0.48690(19) 0.7197(3) 0.0984(15) Uani 1 1 d . . . . .
C48 C 0.6603(8) 0.4492(4) 0.6609(4) 0.165(4) Uani 1 1 d . . . . .
H48A H 0.652700 0.468385 0.617248 0.198 Uiso 1 1 calc DR U . . .
H48B H 0.746421 0.431889 0.661406 0.198 Uiso 1 1 calc R . . . .
C49 C 0.8180(6) 0.4380(4) 0.7973(5) 0.192(4) Uani 1 1 d . . . . .
H49A H 0.884032 0.456112 0.770658 0.288 Uiso 1 1 calc GR . . . .
H49B H 0.813370 0.402382 0.782243 0.288 Uiso 1 1 calc GR . . . .
H49C H 0.842154 0.439223 0.846154 0.288 Uiso 1 1 calc GR . . . .
C47 C 0.5614(11) 0.4117(3) 0.6618(6) 0.215(6) Uani 1 1 d . . . . .
H47A H 0.575802 0.387263 0.624624 0.323 Uiso 1 1 calc GR . . . .
H47B H 0.475787 0.428019 0.655362 0.323 Uiso 1 1 calc GR . . . .
H47C H 0.564010 0.393874 0.705936 0.323 Uiso 1 1 calc GR . . . .
C51 C 0.7028(11) 0.5796(4) 0.7120(7) 0.305(10) Uani 1 1 d D . . . .
H51A H 0.612095 0.583154 0.695627 0.457 Uiso 1 1 calc GR . . . .
H51B H 0.759172 0.602717 0.686230 0.457 Uiso 1 1 calc GR . . . .
H51C H 0.707946 0.588074 0.760925 0.457 Uiso 1 1 calc GR . . . .
C50 C 0.6842(7) 0.4634(4) 0.7864(5) 0.177(4) Uani 1 1 d . . . . .
H50A H 0.615816 0.437445 0.794392 0.212 Uiso 1 1 calc R . . . .
H50B H 0.674365 0.490064 0.821961 0.212 Uiso 1 1 calc R . . . .
C52 C 0.7433(10) 0.5305(5) 0.7025(9) 0.313(10) Uani 1 1 d D . . . .
H52A H 0.825610 0.526144 0.729332 0.375 Uiso 1 1 calc R . . . .
H52B H 0.766112 0.526955 0.653549 0.375 Uiso 1 1 calc DR U . . .
O10 O 0.5742(14) 0.5475(4) 0.8706(7) 0.220(6) Uani 0.5 1 d . . P . .
H5A H 0.415998 0.534004 0.791829 0.330 Uiso 1 1 d R . . . .
H5B H 0.459948 0.501764 0.741379 0.330 Uiso 1 1 d R . . . .
H10A H 0.556378 0.521274 0.896029 0.330 Uiso 0.5 1 d R . P . .
H10B H 0.625058 0.566504 0.895769 0.330 Uiso 0.5 1 d R . P . .

loop_
_atom_site_aniso_label
_atom_site_aniso_U_11
_atom_site_aniso_U_22
_atom_site_aniso_U_33
_atom_site_aniso_U_23
_atom_site_aniso_U_13
_atom_site_aniso_U_12
Zn1 0.0452(2) 0.0338(2) 0.0465(2) 0.00084(19) 0.01249(19) -0.00237(17)
Zn2 0.0364(2) 0.0335(2) 0.0460(2) 0.00001(19) -0.00134(18) 0.00609(16)
O1 0.0526(15) 0.0509(16) 0.0691(18) 0.0162(14) 0.0230(14) -0.0019(12)
C2 0.047(2) 0.051(2) 0.049(2) 0.016(2) 0.0095(18) 0.0017(17)
C14 0.0357(18) 0.041(2) 0.045(2) 0.0062(18) 0.0028(17) -0.0014(15)
O7 0.0702(19) 0.0547(19) 0.143(3) 0.035(2) -0.051(2) -0.0079(16)
C1 0.061(2) 0.052(3) 0.054(2) 0.012(2) 0.010(2) -0.002(2)
C13 0.0323(17) 0.041(2) 0.0415(19) 0.0070(17) 0.0016(15) -0.0040(14)
N1 0.0447(17) 0.064(2) 0.060(2) 0.0262(18) -0.0106(16) -0.0237(16)
C46 0.049(2) 0.052(2) 0.054(2) 0.001(2) -0.003(2) 0.0074(18)
C15 0.045(2) 0.047(2) 0.046(2) 0.0018(18) 0.0056(17) -0.0107(16)
O2 0.105(2) 0.0474(18) 0.097(2) 0.0119(18) 0.040(2) 0.0025(16)
N2 0.0510(18) 0.054(2) 0.058(2) 0.0190(17) 0.0051(17) 0.0197(15)
C17 0.0377(19) 0.060(2) 0.044(2) 0.0139(19) 0.0068(17) -0.0126(17)
C3 0.045(2) 0.058(2) 0.052(2) 0.012(2) 0.0135(18) 0.0010(18)
C24 0.057(3) 0.066(3) 0.066(3) 0.024(3) 0.010(2) 0.013(2)
C10 0.0391(19) 0.064(3) 0.041(2) 0.0099(19) -0.0005(17) -0.0166(18)
C28 0.0407(19) 0.057(2) 0.045(2) 0.0065(19) 0.0003(17) 0.0129(17)
C43 0.046(2) 0.076(3) 0.047(2) -0.002(2) -0.0016(19) -0.009(2)
C40 0.0392(19) 0.053(2) 0.043(2) 0.0087(18) -0.0074(17) 0.0116(16)
C5 0.0321(18) 0.072(3) 0.053(2) 0.027(2) 0.0009(18) -0.0012(18)
C16 0.057(2) 0.053(2) 0.050(2) -0.001(2) 0.0028(19) -0.0236(19)
C25 0.042(2) 0.053(2) 0.063(3) 0.011(2) 0.0061(19) 0.0131(18)
C23 0.060(2) 0.050(2) 0.060(2) 0.007(2) -0.001(2) -0.0122(19)
C11 0.056(2) 0.073(3) 0.047(2) -0.003(2) 0.0178(19) -0.016(2)
C8 0.035(2) 0.096(3) 0.064(3) 0.031(3) 0.0002(19) -0.014(2)
C42 0.059(2) 0.068(3) 0.055(2) -0.011(2) -0.001(2) 0.012(2)
C20 0.044(2) 0.070(3) 0.047(2) 0.005(2) 0.0001(18) 0.002(2)
C12 0.055(2) 0.050(2) 0.052(2) -0.011(2) 0.0114(19) -0.0167(18)
C45 0.055(2) 0.058(3) 0.056(2) 0.001(2) -0.004(2) -0.0099(19)
C41 0.056(2) 0.051(2) 0.055(2) 0.008(2) -0.002(2) 0.0061(18)
C22 0.058(2) 0.061(3) 0.063(3) 0.013(2) -0.004(2) 0.004(2)
C18 0.048(2) 0.051(2) 0.064(3) 0.012(2) -0.004(2) -0.0033(18)
C4 0.049(2) 0.049(2) 0.068(3) 0.015(2) 0.008(2) -0.0073(18)
C31 0.060(2) 0.079(3) 0.045(2) 0.012(2) 0.000(2) 0.024(2)
C29 0.070(3) 0.062(3) 0.054(2) -0.004(2) -0.015(2) 0.014(2)
C9 0.056(2) 0.092(3) 0.045(2) 0.013(2) 0.0017(19) -0.035(2)
C19 0.053(2) 0.060(3) 0.059(2) -0.006(2) -0.002(2) -0.009(2)
C26 0.048(2) 0.057(3) 0.062(2) 0.005(2) -0.016(2) 0.0031(19)
C27 0.057(2) 0.043(2) 0.055(2) -0.0012(19) -0.007(2) 0.0109(18)
C7 0.087(3) 0.058(3) 0.078(3) 0.019(3) 0.036(3) 0.014(2)
O6 0.129(3) 0.093(3) 0.095(3) -0.014(2) -0.022(2) 0.070(2)
C32 0.040(2) 0.072(3) 0.067(3) 0.023(2) -0.0023(19) 0.0100(19)
C30 0.075(3) 0.055(3) 0.063(3) -0.007(2) -0.004(2) 0.024(2)
C44 0.078(3) 0.113(4) 0.062(3) -0.010(3) 0.013(3) -0.015(3)
C21 0.069(3) 0.101(4) 0.070(3) -0.002(3) -0.022(2) 0.006(3)
O4 0.0535(15) 0.0490(15) 0.0530(15) -0.0033(13) 0.0186(13) -0.0139(12)
O3 0.0506(14) 0.0472(15) 0.0558(15) -0.0030(13) 0.0109(13) -0.0136(12)
C33 0.0387(19) 0.060(3) 0.054(2) 0.019(2) 0.0021(18) -0.0001(18)
C34 0.056(2) 0.043(2) 0.062(2) 0.011(2) -0.006(2) 0.0066(18)
C39 0.065(3) 0.061(3) 0.053(2) 0.010(2) -0.011(2) -0.004(2)
C35 0.051(2) 0.049(2) 0.050(2) 0.0085(19) -0.0043(18) -0.0002(18)
C38 0.061(2) 0.044(2) 0.054(2) 0.006(2) -0.001(2) -0.0003(18)
C6 0.067(3) 0.079(3) 0.074(3) 0.021(3) 0.033(2) 0.014(2)
C36 0.0387(18) 0.045(2) 0.046(2) 0.0124(18) 0.0029(17) -0.0015(16)
C37 0.0382(19) 0.045(2) 0.052(2) 0.015(2) 0.0054(18) -0.0004(16)
O8 0.0593(16) 0.0478(16) 0.0597(17) 0.0059(14) -0.0164(14) 0.0089(13)
O9 0.0774(19) 0.0478(16) 0.0559(16) 0.0045(14) -0.0012(15) 0.0173(14)
O5 0.0359(12) 0.0522(15) 0.0580(15) 0.0030(13) 0.0067(12) 0.0006(11)
N3 0.066(3) 0.086(3) 0.144(5) -0.029(4) 0.013(3) -0.009(2)
C48 0.134(7) 0.217(10) 0.143(7) -0.051(7) -0.019(6) 0.094(7)
C49 0.076(4) 0.311(13) 0.188(8) -0.021(9) 0.006(5) 0.055(6)
C47 0.272(12) 0.098(6) 0.273(12) -0.061(7) -0.101(11) -0.023(7)
C51 0.312(15) 0.200(11) 0.396(18) 0.156(13) -0.246(14) -0.165(11)
C50 0.072(4) 0.299(13) 0.160(8) -0.013(8) 0.019(5) 0.046(6)
C52 0.152(9) 0.222(14) 0.57(3) 0.006(17) 0.090(14) -0.090(10)
O10 0.296(16) 0.130(9) 0.232(13) -0.023(9) -0.086(12) -0.078(10)

_geom_special_details            
;
 All esds (except the esd in the dihedral angle between two l.s. planes)
 are estimated using the full covariance matrix.  The cell esds are taken
 into account individually in the estimation of esds in distances, angles
 and torsion angles; correlations between esds in cell parameters are only
 used when they are defined by crystal symmetry.  An approximate (isotropic)
 treatment of cell esds is used for estimating esds involving l.s. planes.
;
loop_
_geom_bond_atom_site_label_1
_geom_bond_atom_site_label_2
_geom_bond_distance
_geom_bond_site_symmetry_2
_geom_bond_publ_flag
Zn1 Zn2 2.9711(6) . ?
Zn1 O1 1.931(2) . ?
Zn1 C1 2.536(4) . ?
Zn1 O4 2.007(2) 4_476 ?
Zn1 O9 1.954(3) 4_465 ?
Zn1 O5 1.970(2) . ?
Zn2 O7 1.933(3) . ?
Zn2 C24 2.535(4) . ?
Zn2 O3 1.967(2) 4_476 ?
Zn2 O8 1.992(2) 4_465 ?
Zn2 O5 1.978(2) . ?
O1 C1 1.273(4) . ?
C2 C1 1.491(5) . ?
C2 C3 1.378(5) . ?
C2 C7 1.377(5) . ?
C14 C13 1.494(4) . ?
C14 O4 1.256(4) . ?
C14 O3 1.254(4) . ?
O7 C24 1.229(5) . ?
C1 O2 1.230(5) . ?
C13 C15 1.376(5) . ?
C13 C12 1.382(5) . ?
N1 C17 1.388(5) . ?
N1 C8 1.448(5) . ?
N1 C9 1.430(5) . ?
C46 H46 0.9300 . ?
C46 C40 1.391(5) . ?
C46 C45 1.384(5) . ?
C15 H15 0.9300 . ?
C15 C16 1.383(5) . ?
N2 C40 1.391(5) . ?
N2 C31 1.445(5) . ?
N2 C32 1.448(5) . ?
C17 C23 1.391(5) . ?
C17 C18 1.389(5) . ?
C3 H3 0.9300 . ?
C3 C4 1.373(5) . ?
C24 C25 1.493(5) . ?
C24 O6 1.234(5) . ?
C10 C16 1.372(5) . ?
C10 C11 1.374(5) . ?
C10 C9 1.518(5) . ?
C28 C31 1.510(5) . ?
C28 C29 1.384(5) . ?
C28 C27 1.374(5) . ?
C43 C42 1.381(6) . ?
C43 C45 1.377(6) . ?
C43 C44 1.509(6) . ?
C40 C41 1.386(5) . ?
C5 C8 1.519(5) . ?
C5 C4 1.374(5) . ?
C5 C6 1.372(6) . ?
C16 H16 0.9300 . ?
C25 C26 1.367(5) . ?
C25 C30 1.375(5) . ?
C23 H23 0.9300 . ?
C23 C22 1.375(5) . ?
C11 H11 0.9300 . ?
C11 C12 1.379(5) . ?
C8 H8A 0.9700 . ?
C8 H8B 0.9700 . ?
C42 H42 0.9300 . ?
C42 C41 1.375(5) . ?
C20 C22 1.371(6) . ?
C20 C19 1.373(5) . ?
C20 C21 1.513(5) . ?
C12 H12 0.9300 . ?
C45 H45 0.9300 . ?
C41 H41 0.9300 . ?
C22 H22 0.9300 . ?
C18 H18 0.9300 . ?
C18 C19 1.373(5) . ?
C4 H4 0.9300 . ?
C31 H31A 0.9700 . ?
C31 H31B 0.9700 . ?
C29 H29 0.9300 . ?
C29 C30 1.366(5) . ?
C9 H9A 0.9700 . ?
C9 H9B 0.9700 . ?
C19 H19 0.9300 . ?
C26 H26 0.9300 . ?
C26 C27 1.382(5) . ?
C27 H27 0.9300 . ?
C7 H7 0.9300 . ?
C7 C6 1.375(6) . ?
C32 H32A 0.9700 . ?
C32 H32B 0.9700 . ?
C32 C33 1.520(5) . ?
C30 H30 0.9300 . ?
C44 H44A 0.9600 . ?
C44 H44B 0.9600 . ?
C44 H44C 0.9600 . ?
C21 H21A 0.9600 . ?
C21 H21B 0.9600 . ?
C21 H21C 0.9600 . ?
C33 C34 1.387(5) . ?
C33 C39 1.371(5) . ?
C34 H34 0.9300 . ?
C34 C35 1.382(5) . ?
C39 H39 0.9300 . ?
C39 C38 1.381(5) . ?
C35 H35 0.9300 . ?
C35 C36 1.376(5) . ?
C38 H38 0.9300 . ?
C38 C36 1.388(5) . ?
C6 H6 0.9300 . ?
C36 C37 1.494(5) . ?
C37 O8 1.258(4) . ?
C37 O9 1.248(4) . ?
O5 H5A 0.8596 . ?
O5 H5B 0.8480 . ?
N3 C48 1.482(8) . ?
N3 C50 1.430(9) . ?
N3 C52 1.449(11) . ?
C48 H48A 0.9700 . ?
C48 H48B 0.9700 . ?
C48 C47 1.380(11) . ?
C49 H49A 0.9600 . ?
C49 H49B 0.9600 . ?
C49 H49C 0.9600 . ?
C49 C50 1.502(9) . ?
C47 H47A 0.9600 . ?
C47 H47B 0.9600 . ?
C47 H47C 0.9600 . ?
C51 H51A 0.9600 . ?
C51 H51B 0.9600 . ?
C51 H51C 0.9600 . ?
C51 C52 1.338(11) . ?
C50 H50A 0.9700 . ?
C50 H50B 0.9700 . ?
C52 H52A 0.9700 . ?
C52 H52B 0.9700 . ?
O10 H10A 0.8500 . ?
O10 H10B 0.8501 . ?

loop_
_geom_angle_atom_site_label_1
_geom_angle_atom_site_label_2
_geom_angle_atom_site_label_3
_geom_angle
_geom_angle_site_symmetry_1
_geom_angle_site_symmetry_3
_geom_angle_publ_flag
O1 Zn1 Zn2 155.58(8) . . ?
O1 Zn1 C1 29.31(12) . . ?
O1 Zn1 O4 104.35(11) . 4_476 ?
O1 Zn1 O9 121.43(12) . 4_465 ?
O1 Zn1 O5 116.00(11) . . ?
C1 Zn1 Zn2 140.21(9) . . ?
O4 Zn1 Zn2 76.37(7) 4_476 . ?
O4 Zn1 C1 133.23(12) 4_476 . ?
O9 Zn1 Zn2 81.74(8) 4_465 . ?
O9 Zn1 C1 111.22(12) 4_465 . ?
O9 Zn1 O4 100.02(11) 4_465 4_476 ?
O9 Zn1 O5 111.71(11) 4_465 . ?
O5 Zn1 Zn2 41.30(7) . . ?
O5 Zn1 C1 100.97(11) . . ?
O5 Zn1 O4 98.54(10) . 4_476 ?
O7 Zn2 Zn1 144.72(11) . . ?
O7 Zn2 C24 28.01(14) . . ?
O7 Zn2 O3 132.35(14) . 4_476 ?
O7 Zn2 O8 98.83(13) . 4_465 ?
O7 Zn2 O5 111.09(12) . . ?
C24 Zn2 Zn1 139.79(10) . . ?
O3 Zn2 Zn1 82.25(8) 4_476 . ?
O3 Zn2 C24 117.47(13) 4_476 . ?
O3 Zn2 O8 101.61(11) 4_476 4_465 ?
O3 Zn2 O5 104.24(10) 4_476 . ?
O8 Zn2 Zn1 76.38(8) 4_465 . ?
O8 Zn2 C24 126.81(14) 4_465 . ?
O5 Zn2 Zn1 41.07(7) . . ?
O5 Zn2 C24 98.73(12) . . ?
O5 Zn2 O8 105.29(11) . 4_465 ?
C1 O1 Zn1 102.7(2) . . ?
C3 C2 C1 120.8(3) . . ?
C7 C2 C1 120.8(4) . . ?
C7 C2 C3 118.4(3) . . ?
O4 C14 C13 116.8(3) . . ?
O3 C14 C13 117.6(3) . . ?
O3 C14 O4 125.7(3) . . ?
C24 O7 Zn2 104.4(3) . . ?
O1 C1 Zn1 47.97(17) . . ?
O1 C1 C2 117.3(4) . . ?
C2 C1 Zn1 163.6(3) . . ?
O2 C1 Zn1 74.5(2) . . ?
O2 C1 O1 122.2(4) . . ?
O2 C1 C2 120.5(4) . . ?
C15 C13 C14 120.2(3) . . ?
C15 C13 C12 118.5(3) . . ?
C12 C13 C14 121.3(3) . . ?
C17 N1 C8 120.7(3) . . ?
C17 N1 C9 121.3(3) . . ?
C9 N1 C8 118.0(3) . . ?
C40 C46 H46 119.4 . . ?
C45 C46 H46 119.4 . . ?
C45 C46 C40 121.2(4) . . ?
C13 C15 H15 119.6 . . ?
C13 C15 C16 120.8(3) . . ?
C16 C15 H15 119.6 . . ?
C40 N2 C31 119.9(3) . . ?
C40 N2 C32 120.2(3) . . ?
C31 N2 C32 119.1(3) . . ?
N1 C17 C23 121.9(4) . . ?
N1 C17 C18 121.8(4) . . ?
C18 C17 C23 116.2(3) . . ?
C2 C3 H3 119.7 . . ?
C4 C3 C2 120.5(4) . . ?
C4 C3 H3 119.7 . . ?
O7 C24 Zn2 47.6(2) . . ?
O7 C24 C25 118.5(4) . . ?
O7 C24 O6 120.8(4) . . ?
C25 C24 Zn2 162.8(3) . . ?
O6 C24 Zn2 73.8(3) . . ?
O6 C24 C25 120.7(5) . . ?
C16 C10 C11 118.5(3) . . ?
C16 C10 C9 121.7(4) . . ?
C11 C10 C9 119.8(3) . . ?
C29 C28 C31 119.8(3) . . ?
C27 C28 C31 122.6(4) . . ?
C27 C28 C29 117.6(3) . . ?
C42 C43 C44 121.6(4) . . ?
C45 C43 C42 116.5(4) . . ?
C45 C43 C44 121.8(4) . . ?
N2 C40 C46 121.5(3) . . ?
C41 C40 C46 116.8(4) . . ?
C41 C40 N2 121.7(4) . . ?
C4 C5 C8 120.9(4) . . ?
C6 C5 C8 121.0(4) . . ?
C6 C5 C4 118.1(4) . . ?
C15 C16 H16 119.6 . . ?
C10 C16 C15 120.7(4) . . ?
C10 C16 H16 119.6 . . ?
C26 C25 C24 120.6(4) . . ?
C26 C25 C30 118.7(4) . . ?
C30 C25 C24 120.8(4) . . ?
C17 C23 H23 119.5 . . ?
C22 C23 C17 121.0(4) . . ?
C22 C23 H23 119.5 . . ?
C10 C11 H11 119.4 . . ?
C10 C11 C12 121.2(4) . . ?
C12 C11 H11 119.4 . . ?
N1 C8 C5 115.0(3) . . ?
N1 C8 H8A 108.5 . . ?
N1 C8 H8B 108.5 . . ?
C5 C8 H8A 108.5 . . ?
C5 C8 H8B 108.5 . . ?
H8A C8 H8B 107.5 . . ?
C43 C42 H42 118.8 . . ?
C41 C42 C43 122.4(4) . . ?
C41 C42 H42 118.8 . . ?
C22 C20 C19 116.5(4) . . ?
C22 C20 C21 121.7(4) . . ?
C19 C20 C21 121.8(4) . . ?
C13 C12 H12 119.9 . . ?
C11 C12 C13 120.3(4) . . ?
C11 C12 H12 119.9 . . ?
C46 C45 H45 119.1 . . ?
C43 C45 C46 121.9(4) . . ?
C43 C45 H45 119.1 . . ?
C40 C41 H41 119.4 . . ?
C42 C41 C40 121.2(4) . . ?
C42 C41 H41 119.4 . . ?
C23 C22 H22 118.7 . . ?
C20 C22 C23 122.5(4) . . ?
C20 C22 H22 118.7 . . ?
C17 C18 H18 119.2 . . ?
C19 C18 C17 121.7(4) . . ?
C19 C18 H18 119.2 . . ?
C3 C4 C5 121.2(4) . . ?
C3 C4 H4 119.4 . . ?
C5 C4 H4 119.4 . . ?
N2 C31 C28 116.2(3) . . ?
N2 C31 H31A 108.2 . . ?
N2 C31 H31B 108.2 . . ?
C28 C31 H31A 108.2 . . ?
C28 C31 H31B 108.2 . . ?
H31A C31 H31B 107.4 . . ?
C28 C29 H29 119.2 . . ?
C30 C29 C28 121.5(4) . . ?
C30 C29 H29 119.2 . . ?
N1 C9 C10 116.1(3) . . ?
N1 C9 H9A 108.3 . . ?
N1 C9 H9B 108.3 . . ?
C10 C9 H9A 108.3 . . ?
C10 C9 H9B 108.3 . . ?
H9A C9 H9B 107.4 . . ?
C20 C19 H19 119.0 . . ?
C18 C19 C20 122.0(4) . . ?
C18 C19 H19 119.0 . . ?
C25 C26 H26 119.6 . . ?
C25 C26 C27 120.9(4) . . ?
C27 C26 H26 119.6 . . ?
C28 C27 C26 120.8(4) . . ?
C28 C27 H27 119.6 . . ?
C26 C27 H27 119.6 . . ?
C2 C7 H7 119.7 . . ?
C6 C7 C2 120.5(4) . . ?
C6 C7 H7 119.7 . . ?
N2 C32 H32A 108.6 . . ?
N2 C32 H32B 108.6 . . ?
N2 C32 C33 114.8(3) . . ?
H32A C32 H32B 107.5 . . ?
C33 C32 H32A 108.6 . . ?
C33 C32 H32B 108.6 . . ?
C25 C30 H30 119.8 . . ?
C29 C30 C25 120.5(4) . . ?
C29 C30 H30 119.8 . . ?
C43 C44 H44A 109.5 . . ?
C43 C44 H44B 109.5 . . ?
C43 C44 H44C 109.5 . . ?
H44A C44 H44B 109.5 . . ?
H44A C44 H44C 109.5 . . ?
H44B C44 H44C 109.5 . . ?
C20 C21 H21A 109.5 . . ?
C20 C21 H21B 109.5 . . ?
C20 C21 H21C 109.5 . . ?
H21A C21 H21B 109.5 . . ?
H21A C21 H21C 109.5 . . ?
H21B C21 H21C 109.5 . . ?
C14 O4 Zn1 130.7(2) . 4_675 ?
C14 O3 Zn2 124.9(2) . 4_675 ?
C34 C33 C32 121.0(4) . . ?
C39 C33 C32 121.0(4) . . ?
C39 C33 C34 118.0(4) . . ?
C33 C34 H34 119.6 . . ?
C35 C34 C33 120.7(4) . . ?
C35 C34 H34 119.6 . . ?
C33 C39 H39 119.1 . . ?
C33 C39 C38 121.8(4) . . ?
C38 C39 H39 119.1 . . ?
C34 C35 H35 119.6 . . ?
C36 C35 C34 120.7(4) . . ?
C36 C35 H35 119.6 . . ?
C39 C38 H38 120.1 . . ?
C39 C38 C36 119.8(4) . . ?
C36 C38 H38 120.1 . . ?
C5 C6 C7 121.2(4) . . ?
C5 C6 H6 119.4 . . ?
C7 C6 H6 119.4 . . ?
C35 C36 C38 118.8(3) . . ?
C35 C36 C37 120.9(3) . . ?
C38 C36 C37 120.2(3) . . ?
O8 C37 C36 117.0(3) . . ?
O9 C37 C36 117.9(3) . . ?
O9 C37 O8 125.1(3) . . ?
C37 O8 Zn2 130.7(3) . 4_666 ?
C37 O9 Zn1 125.8(3) . 4_666 ?
Zn1 O5 Zn2 97.63(10) . . ?
Zn1 O5 H5A 115.1 . . ?
Zn1 O5 H5B 111.9 . . ?
Zn2 O5 H5A 104.2 . . ?
Zn2 O5 H5B 124.1 . . ?
H5A O5 H5B 104.3 . . ?
C50 N3 C48 113.2(6) . . ?
C50 N3 C52 115.0(9) . . ?
C52 N3 C48 108.5(8) . . ?
N3 C48 H48A 108.5 . . ?
N3 C48 H48B 108.5 . . ?
H48A C48 H48B 107.5 . . ?
C47 C48 N3 115.2(8) . . ?
C47 C48 H48A 108.5 . . ?
C47 C48 H48B 108.5 . . ?
H49A C49 H49B 109.5 . . ?
H49A C49 H49C 109.5 . . ?
H49B C49 H49C 109.5 . . ?
C50 C49 H49A 109.5 . . ?
C50 C49 H49B 109.5 . . ?
C50 C49 H49C 109.5 . . ?
C48 C47 H47A 109.5 . . ?
C48 C47 H47B 109.5 . . ?
C48 C47 H47C 109.5 . . ?
H47A C47 H47B 109.5 . . ?
H47A C47 H47C 109.5 . . ?
H47B C47 H47C 109.5 . . ?
H51A C51 H51B 109.5 . . ?
H51A C51 H51C 109.5 . . ?
H51B C51 H51C 109.5 . . ?
C52 C51 H51A 109.5 . . ?
C52 C51 H51B 109.5 . . ?
C52 C51 H51C 109.5 . . ?
N3 C50 C49 117.5(7) . . ?
N3 C50 H50A 107.9 . . ?
N3 C50 H50B 107.9 . . ?
C49 C50 H50A 107.9 . . ?
C49 C50 H50B 107.9 . . ?
H50A C50 H50B 107.2 . . ?
N3 C52 H52A 107.1 . . ?
N3 C52 H52B 107.1 . . ?
C51 C52 N3 121.1(10) . . ?
C51 C52 H52A 107.1 . . ?
C51 C52 H52B 107.1 . . ?
H52A C52 H52B 106.8 . . ?
H10A O10 H10B 105.1 . . ?

loop_
_geom_hbond_atom_site_label_D
_geom_hbond_atom_site_label_H
_geom_hbond_atom_site_label_A
_geom_hbond_distance_DH
_geom_hbond_distance_HA
_geom_hbond_distance_DA
_geom_hbond_angle_DHA
_geom_hbond_site_symmetry_A
_geom_hbond_publ_flag
O5 H5A O10 0.86 2.20 2.926(12) 142.7 . yes
O5 H5B N3 0.85 2.06 2.885(5) 163.3 . yes
O10 H10A O6 0.85 1.92 2.638(13) 141.2 . yes

_shelx_res_file                  
;
TITL B14-269-Zn in P21/c #14
    zn.res
    created by SHELXL-2018/3 at 12:11:12 on 24-Sep-2019
REM reset to P21/c #14
CELL 0.71073 10.00615 25.68467 19.0916 90 90.7755 90
ZERR 4 0.00026 0.0007 0.00055 0 0.0028 0
LATT 1
SYMM -X,0.5+Y,0.5-Z
SFAC C H N O Zn
UNIT 208 224 12 38 8
DFIX 1.4 C52 C51
DFIX 1.5 C51 C52
DFIX 2.1 H48a H52b
SIMU 0.04 0.08 1.7 H48a H52b O5 O6
SIMU 0.02 0.04 1.7 O5 O6
ISOR 0.005 0.01 O6

L.S. 20
PLAN  1
HTAB O5 O10
HTAB O5 N3
HTAB O10 O6
BOND $h
htab
fmap 2
acta
OMIT 0 50
OMIT 3 3 3
OMIT -6 6 6
OMIT 6 3 12
OMIT 0 7 7
OMIT 3 9 6
OMIT -6 0 12
OMIT 0 6 6
OMIT -3 9 6
OMIT -6 6 9
OMIT -3 3 12
OMIT -6 12 9
OMIT 7 7 0
OMIT 4 8 12
OMIT -7 3 13
OMIT 6 9 3
OMIT 1 5 2
OMIT -7 7 7
OMIT 0 8 1
OMIT 3 5 4
OMIT -6 15 6
OMIT 8 4 16
OMIT 0 9 9
REM <olex2.extras>
REM <HklSrc "%.\\zn.hkl">
REM </olex2.extras>

WGHT    0.050100    3.123600
FVAR       1.17684
ZN1   5    0.259582    0.540119    0.691599    11.00000    0.04517    0.03377 =
         0.04653    0.00084    0.01249   -0.00237
ZN2   5    0.264465    0.466154    0.811260    11.00000    0.03644    0.03345 =
         0.04600    0.00001   -0.00134    0.00609
O1    4    0.319433    0.598916    0.637321    11.00000    0.05262    0.05094 =
         0.06913    0.01621    0.02296   -0.00190
C2    1    0.499309    0.616914    0.562188    11.00000    0.04683    0.05059 =
         0.04914    0.01551    0.00946    0.00173
C14   1    1.088913    0.945365    0.316979    11.00000    0.03569    0.04077 =
         0.04516    0.00623    0.00281   -0.00143
O7    4    0.358184    0.407941    0.853277    11.00000    0.07025    0.05468 =
         0.14294    0.03481   -0.05067   -0.00786
C1    1    0.415515    0.579852    0.602634    11.00000    0.06148    0.05186 =
         0.05412    0.01232    0.00978   -0.00201
C13   1    0.987058    0.912866    0.353180    11.00000    0.03230    0.04145 =
         0.04150    0.00704    0.00164   -0.00403
N1    3    0.649912    0.772740    0.421192    11.00000    0.04470    0.06390 =
         0.05977    0.02621   -0.01064   -0.02375
C46   1    1.011104    0.308287    0.924137    11.00000    0.04872    0.05198 =
         0.05426    0.00101   -0.00300    0.00737
AFIX  43
H46   2    0.973669    0.338087    0.943383    11.00000   -1.20000
AFIX   0
C15   1    0.947451    0.865954    0.325001    11.00000    0.04488    0.04680 =
         0.04614    0.00184    0.00564   -0.01072
AFIX  43
H15   2    0.984955    0.854448    0.283470    11.00000   -1.20000
AFIX   0
O2    4    0.441494    0.533029    0.603146    11.00000    0.10457    0.04743 =
         0.09678    0.01191    0.03991    0.00246
N2    3    0.877132    0.254419    1.000560    11.00000    0.05103    0.05432 =
         0.05794    0.01898    0.00510    0.01975
C17   1    0.545180    0.774274    0.372857    11.00000    0.03771    0.05965 =
         0.04367    0.01390    0.00684   -0.01264
C3    1    0.491139    0.669780    0.573643    11.00000    0.04467    0.05769 =
         0.05161    0.01167    0.01354    0.00100
AFIX  43
H3    2    0.435558    0.682482    0.608355    11.00000   -1.20000
AFIX   0
C24   1    0.428366    0.427669    0.899423    11.00000    0.05697    0.06611 =
         0.06587    0.02371    0.01013    0.01294
C10   1    0.796179    0.851712    0.419249    11.00000    0.03910    0.06442 =
         0.04132    0.00986   -0.00052   -0.01655
C28   1    0.729513    0.333397    0.997677    11.00000    0.04065    0.05676 =
         0.04536    0.00654    0.00035    0.01288
C43   1    1.165580    0.270399    0.842587    11.00000    0.04631    0.07646 =
         0.04711   -0.00204   -0.00156   -0.00895
C40   1    0.970056    0.259606    0.947456    11.00000    0.03925    0.05338 =
         0.04259    0.00871   -0.00741    0.01156
C5    1    0.645936    0.686433    0.481848    11.00000    0.03210    0.07228 =
         0.05294    0.02675    0.00089   -0.00123
C16   1    0.852481    0.835705    0.357736    11.00000    0.05662    0.05298 =
         0.05044   -0.00074    0.00281   -0.02362
AFIX  43
H16   2    0.826499    0.804177    0.337844    11.00000   -1.20000
AFIX   0
C25   1    0.535478    0.395294    0.932794    11.00000    0.04246    0.05251 =
         0.06285    0.01103    0.00610    0.01312
C23   1    0.490674    0.821033    0.349255    11.00000    0.05952    0.05033 =
         0.05950    0.00703   -0.00100   -0.01224
AFIX  43
H23   2    0.525449    0.852328    0.365876    11.00000   -1.20000
AFIX   0
C11   1    0.836600    0.898339    0.447693    11.00000    0.05580    0.07299 =
         0.04686   -0.00347    0.01782   -0.01592
AFIX  43
H11   2    0.799461    0.909595    0.489438    11.00000   -1.20000
AFIX   0
C8    1    0.720047    0.724532    0.435570    11.00000    0.03472    0.09604 =
         0.06393    0.03082    0.00021   -0.01383
AFIX  23
H8A   2    0.805161    0.732741    0.457850    11.00000   -1.20000
H8B   2    0.738682    0.707565    0.391374    11.00000   -1.20000
AFIX   0
C42   1    1.122655    0.222237    0.865216    11.00000    0.05915    0.06810 =
         0.05502   -0.01112   -0.00051    0.01215
AFIX  43
H42   2    1.158869    0.192512    0.845138    11.00000   -1.20000
AFIX   0
C20   1    0.330410    0.777027    0.274959    11.00000    0.04414    0.06987 =
         0.04736    0.00467    0.00010    0.00200
C12   1    0.931271    0.928771    0.415467    11.00000    0.05451    0.04978 =
         0.05176   -0.01093    0.01140   -0.01672
AFIX  43
H12   2    0.957673    0.960117    0.435731    11.00000   -1.20000
AFIX   0
C45   1    1.106649    0.313165    0.872813    11.00000    0.05463    0.05784 =
         0.05613    0.00075   -0.00416   -0.00988
AFIX  43
H45   2    1.131781    0.346275    0.858318    11.00000   -1.20000
AFIX   0
C41   1    1.028312    0.216636    0.916358    11.00000    0.05571    0.05141 =
         0.05455    0.00836   -0.00189    0.00608
AFIX  43
H41   2    1.003142    0.183406    0.930332    11.00000   -1.20000
AFIX   0
C22   1    0.386200    0.821679    0.301741    11.00000    0.05783    0.06071 =
         0.06328    0.01294   -0.00361    0.00388
AFIX  43
H22   2    0.352044    0.853634    0.287200    11.00000   -1.20000
AFIX   0
C18   1    0.488883    0.729187    0.345248    11.00000    0.04808    0.05079 =
         0.06449    0.01204   -0.00412   -0.00329
AFIX  43
H18   2    0.522411    0.697042    0.359413    11.00000   -1.20000
AFIX   0
C4    1    0.564393    0.703838    0.534222    11.00000    0.04947    0.04854 =
         0.06755    0.01491    0.00778   -0.00726
AFIX  43
H4    2    0.558724    0.739362    0.543132    11.00000   -1.20000
AFIX   0
C31   1    0.829796    0.300044    1.036900    11.00000    0.06006    0.07894 =
         0.04479    0.01170    0.00027    0.02354
AFIX  23
H31A  2    0.906398    0.321538    1.049006    11.00000   -1.20000
H31B  2    0.789772    0.288873    1.080384    11.00000   -1.20000
AFIX   0
C29   1    0.705576    0.383836    1.019717    11.00000    0.07014    0.06150 =
         0.05406   -0.00365   -0.01536    0.01371
AFIX  43
H29   2    0.755309    0.397327    1.057004    11.00000   -1.20000
AFIX   0
C9    1    0.694025    0.818644    0.456997    11.00000    0.05579    0.09169 =
         0.04470    0.01282    0.00172   -0.03549
AFIX  23
H9A   2    0.732026    0.808378    0.501922    11.00000   -1.20000
H9B   2    0.616495    0.840121    0.466233    11.00000   -1.20000
AFIX   0
C19   1    0.385021    0.730841    0.297590    11.00000    0.05273    0.05993 =
         0.05889   -0.00603   -0.00220   -0.00855
AFIX  43
H19   2    0.350594    0.699748    0.280097    11.00000   -1.20000
AFIX   0
C26   1    0.560254    0.345991    0.909334    11.00000    0.04831    0.05692 =
         0.06195    0.00470   -0.01627    0.00310
AFIX  43
H26   2    0.511254    0.332888    0.871533    11.00000   -1.20000
AFIX   0
C27   1    0.657141    0.315364    0.941047    11.00000    0.05737    0.04307 =
         0.05476   -0.00119   -0.00671    0.01092
AFIX  43
H27   2    0.673551    0.282133    0.923837    11.00000   -1.20000
AFIX   0
C7    1    0.584628    0.599201    0.511458    11.00000    0.08727    0.05769 =
         0.07810    0.01909    0.03577    0.01439
AFIX  43
H7    2    0.593425    0.563613    0.503815    11.00000   -1.20000
AFIX   0
O6    4    0.413784    0.473715    0.916176    11.00000    0.12911    0.09263 =
         0.09460   -0.01401   -0.02197    0.07026
C32   1    0.811544    0.204946    1.012087    11.00000    0.04000    0.07225 =
         0.06664    0.02274   -0.00227    0.01000
AFIX  23
H32A  2    0.791509    0.189249    0.966942    11.00000   -1.20000
H32B  2    0.727230    0.211361    1.035037    11.00000   -1.20000
AFIX   0
C30   1    0.610582    0.414258    0.987962    11.00000    0.07460    0.05461 =
         0.06273   -0.00655   -0.00430    0.02358
AFIX  43
H30   2    0.596614    0.448044    1.003779    11.00000   -1.20000
AFIX   0
C44   1    1.271107    0.275767    0.787337    11.00000    0.07822    0.11334 =
         0.06201   -0.00984    0.01257   -0.01522
AFIX 137
H44A  2    1.345089    0.253346    0.798604    11.00000   -1.50000
H44B  2    1.301382    0.311208    0.785714    11.00000   -1.50000
H44C  2    1.233990    0.266163    0.742541    11.00000   -1.50000
AFIX   0
C21   1    0.214125    0.778586    0.223475    11.00000    0.06887    0.10116 =
         0.06975   -0.00213   -0.02195    0.00553
AFIX 137
H21A  2    0.132829    0.770839    0.247489    11.00000   -1.50000
H21B  2    0.227823    0.753260    0.187296    11.00000   -1.50000
H21C  2    0.207963    0.812648    0.202985    11.00000   -1.50000
AFIX   0
O4    4    1.127646    0.929438    0.258432    11.00000    0.05346    0.04904 =
         0.05296   -0.00325    0.01865   -0.01394
O3    4    1.126994    0.986327    0.346919    11.00000    0.05060    0.04716 =
         0.05580   -0.00297    0.01092   -0.01363
C33   1    0.891708    0.166274    1.055877    11.00000    0.03870    0.05988 =
         0.05441    0.01892    0.00209   -0.00005
C34   1    0.943978    0.180122    1.120919    11.00000    0.05614    0.04269 =
         0.06165    0.01091   -0.00570    0.00665
AFIX  43
H34   2    0.929776    0.213520    1.138098    11.00000   -1.20000
AFIX   0
C39   1    0.912656    0.116424    1.032742    11.00000    0.06528    0.06076 =
         0.05297    0.00986   -0.01131   -0.00400
AFIX  43
H39   2    0.875595    0.106163    0.989992    11.00000   -1.20000
AFIX   0
C35   1    1.016953    0.144808    1.160472    11.00000    0.05122    0.04944 =
         0.04977    0.00852   -0.00429   -0.00016
AFIX  43
H35   2    1.050444    0.154585    1.204205    11.00000   -1.20000
AFIX   0
C38   1    0.987271    0.081051    1.071187    11.00000    0.06094    0.04410 =
         0.05378    0.00612   -0.00131   -0.00032
AFIX  43
H38   2    1.001754    0.047734    1.053789    11.00000   -1.20000
AFIX   0
C6    1    0.656940    0.633718    0.472000    11.00000    0.06718    0.07859 =
         0.07373    0.02086    0.03268    0.01382
AFIX  43
H6    2    0.714302    0.621092    0.438046    11.00000   -1.20000
AFIX   0
C36   1    1.040583    0.095347    1.135844    11.00000    0.03875    0.04481 =
         0.04615    0.01244    0.00288   -0.00147
C37   1    1.124426    0.057820    1.176938    11.00000    0.03820    0.04500 =
         0.05177    0.01542    0.00537   -0.00045
O8    4    1.163181    0.072102    1.236905    11.00000    0.05930    0.04784 =
         0.05967    0.00592   -0.01640    0.00888
O9    4    1.150294    0.014957    1.149539    11.00000    0.07736    0.04777 =
         0.05585    0.00447   -0.00117    0.01728
O5    4    0.388872    0.512169    0.760615    11.00000    0.03591    0.05225 =
         0.05801    0.00298    0.00668    0.00064

N3    3    0.657663    0.486896    0.719653    11.00000    0.06570    0.08567 =
         0.14425   -0.02944    0.01331   -0.00914
C48   1    0.660274    0.449213    0.660896    11.00000    0.13449    0.21680 =
         0.14275   -0.05095   -0.01912    0.09410
AFIX  23
H48A  2    0.652700    0.468385    0.617248    11.00000   -1.20000
H48B  2    0.746421    0.431889    0.661406    11.00000   -1.20000
AFIX   0
C49   1    0.818014    0.437995    0.797345    11.00000    0.07649    0.31094 =
         0.18818   -0.02097    0.00573    0.05460
AFIX 137
H49A  2    0.884032    0.456112    0.770658    11.00000   -1.50000
H49B  2    0.813370    0.402382    0.782243    11.00000   -1.50000
H49C  2    0.842154    0.439223    0.846154    11.00000   -1.50000
AFIX   0
C47   1    0.561446    0.411740    0.661771    11.00000    0.27240    0.09803 =
         0.27308   -0.06095   -0.10117   -0.02272
AFIX 137
H47A  2    0.575802    0.387263    0.624624    11.00000   -1.50000
H47B  2    0.475787    0.428019    0.655362    11.00000   -1.50000
H47C  2    0.564010    0.393874    0.705936    11.00000   -1.50000
AFIX   0
C51   1    0.702764    0.579569    0.711999    11.00000    0.31175    0.20020 =
         0.39562    0.15579   -0.24650   -0.16477
AFIX 137
H51A  2    0.612095    0.583154    0.695627    11.00000   -1.50000
H51B  2    0.759172    0.602717    0.686230    11.00000   -1.50000
H51C  2    0.707946    0.588074    0.760925    11.00000   -1.50000
AFIX   0
C50   1    0.684218    0.463448    0.786357    11.00000    0.07218    0.29887 =
         0.15960   -0.01259    0.01936    0.04630
AFIX  23
H50A  2    0.615816    0.437445    0.794392    11.00000   -1.20000
H50B  2    0.674365    0.490064    0.821961    11.00000   -1.20000
AFIX   0
C52   1    0.743294    0.530459    0.702542    11.00000    0.15180    0.22160 =
         0.56686    0.00557    0.09017   -0.09017
AFIX  23
H52A  2    0.825610    0.526144    0.729332    11.00000   -1.20000
H52B  2    0.766112    0.526955    0.653549    11.00000   -1.20000
AFIX   0

O10   4    0.574188    0.547464    0.870589    10.50000    0.29556    0.13001 =
         0.23205   -0.02284   -0.08586   -0.07791
AFIX   3
H5A   2    0.415998    0.534004    0.791829    11.00000   -1.50000
H5B   2    0.459948    0.501764    0.741379    11.00000   -1.50000
H10A  2    0.556378    0.521274    0.896029    10.50000   -1.50000
H10B  2    0.625058    0.566504    0.895769    10.50000   -1.50000
AFIX   0
HKLF 4




REM  B14-269-Zn in P21/c #14
REM wR2 = 0.1177, GooF = S = 1.036, Restrained GooF = 1.046 for all data
REM R1 = 0.0463 for 5897 Fo > 4sig(Fo) and 0.0698 for all 7922 data
REM 609 parameters refined using 9 restraints

END

WGHT      0.0500      3.1330

REM Instructions for potential hydrogen bonds
EQIV $5 x, -y+3/2, z-1/2
HTAB C23 O10_$5
HTAB C50 O10
HTAB O5 O10
HTAB O5 N3
HTAB O10 O6

REM Highest difference peak  0.524,  deepest hole -0.364,  1-sigma level  0.054
Q1    1   0.7218  0.5468  0.6923  11.00000  0.05    0.52
;
_shelx_res_checksum              44212
_shelx_hkl_file                  
;
   0   0  -4 2635.39 80.6218   4
   0   0   4 2549.23 74.5872   2
   0   0  -4 2623.29 73.8826   2
   0   0  -5 76.3508 23.0383   4
   0   0  -5 40.5411 17.7905   2
   0   0   5 52.3885 18.3261   2
   0   0   6 23978.7 421.575   2
   0   0  -6 24653.8 434.233   4
   0   0  -6 24732.1 417.108   2
   0   0  -7 305.608 40.5290   4
   0   0  -7 350.669 37.9144   2
   0   0   7 503.764 48.1058   2
   0   0   8 28547.7 507.291   2
   0   0  -8 28575.3 497.899   2
   0   0   9 45.1172 26.8563   2
   0   0  10 1119.83 74.6845   2
   0   0  11 21.6263 31.4746   2
   0   0  12 436.108 41.7392   1
   0   0  12 526.534 60.9551   2
   0   0  13 10.8963 34.8239   2
   0   0  13 10.0406 24.8204   1
   0   0  14 398.775 59.3084   2
   0   0  14 314.644 41.9668   1
   0   0  15 57.2951 27.8415   1
   0   0  15 96.6192 47.1001   2
   0   0  16 6145.76 235.382   2
   0   0  16 6054.69 174.581   1
   0   0  17 295.319 68.9875   2
   0   0  17 164.688 35.9148   1
   0   0  18 5658.05 240.760   2
   0   0  19 347.532 77.0633   2
   0   0  20 656.553 95.9114   2
   0   0  21 245.116 74.9556   2
   0   0  22 839.805 110.582   2
   0   0  23 375.596 86.0794   2
   0   0  24 1042.51 130.812   2
   0   1   3 182.297 18.1133   2
   0   1   3 164.726 18.9400   4
   0  -1  -3 161.967 15.2530   2
   0  -1  -3 184.242 18.4446   4
   0  -1   4 72.8115 16.4243   2
   0   1  -4 108.267 17.8201   2
   0  -1  -4 61.4107 15.9012   4
   0   1   4 69.1583 16.5429   2
   0   1   4 74.9410 12.7093   1
   0  -1  -4 71.2542 13.2844   2
   0   1   4 65.1538 18.2780   4
   0  -1  -5 70.9223 19.0876   4
   0   1  -5 127.900 24.0062   4
   0  -1  -5 69.6706 15.3550   2
   0   1   5 81.1420 14.5679   1
   0   1  -5 75.7116 16.4073   2
   0   1   5 118.170 25.4838   4
   0   1   5 59.3675 17.8895   2
   0  -1   5 66.4146 18.1030   2
   0  -1  -6 340.215 29.8207   2
   0   1   6 372.066 39.4913   4
   0   1   6 303.489 24.9507   1
   0  -1   6 334.669 33.6681   2
   0   1   6 364.221 35.1750   2
   0   1  -6 377.935 36.8355   4
   0  -1  -6 371.406 35.9615   4
   0   1  -6 367.020 31.5369   2
   0  -1  -7 1644.60 79.9643   4
   0  -1  -7 1643.67 71.9611   2
   0   1   7 1660.40 58.9861   1
   0   1  -7 1614.58 71.1650   2
   0   1  -7 1646.07 80.5620   4
   0  -1   7 1655.97 75.3662   2
   0   1   7 1578.93 75.2704   2
   0   1   7 1764.68 84.2593   4
   0   1   8 11523.9 255.839   2
   0   1   8 10849.5 216.734   1
   0  -1   8 11354.4 253.241   2
   0  -1  -8 11596.7 245.027   2
   0   1  -8 11707.7 247.454   2
   0  -1   9 399.815 46.7372   2
   0   1   9 314.607 30.5795   1
   0   1   9 414.099 47.1522   2
   0   1  -9 348.732 38.4212   2
   0   1  10 2725.56 118.666   2
   0   1  10 2720.83 90.5545   1
   0  -1  10 2670.51 117.101   2
   0   1  11 1009.59 57.1734   1
   0   1  11 1033.85 77.5891   2
   0  -1  11 957.391 75.0520   2
   0   1  12 495.849 41.8615   1
   0   1  12 607.166 64.2608   2
   0  -1  12 531.964 60.5248   2
   0   1  13 582.020 68.5722   2
   0   1  13 608.797 49.3005   1
   0  -1  13 483.302 62.8336   2
   0  -1  14 982.948 63.8376   1
   0   1  14 1107.33 65.6710   1
   0  -1  14 973.443 86.0308   2
   0   1  14 1033.94 88.8904   2
   0  -1  15 31.2485 42.0386   2
   0   1  15 34.9742 25.3458   1
   0  -1  15 10.6831 26.7743   1
   0   1  15 30.8323 41.9228   2
   0   1  16 51.7709 27.5340   1
   0  -1  16 11.9802 40.6687   2
   0   1  16 21.4719 42.6684   2
   0  -1  16 46.2071 26.1576   1
   0   1  17 105.543 35.2265   1
   0  -1  17 86.4768 52.7844   2
   0   1  17 18.7303 45.5108   2
   0  -1  17 22.6831 27.7869   1
   0  -1  18-16.5165 47.2208   2
   0   1  18 14.4632 46.8888   2
   0   1  19 106.208 60.1115   2
   0  -1  19 67.9901 54.0136   2
   0  -1  20 37.9076 52.2799   2
   0   1  20-22.1191 53.9549   2
   0  -1  21 171.411 66.9003   2
   0   1  21 126.869 63.0466   2
   0  -1  22 92.2888 64.4094   2
   0   1  22 33.0068 59.7474   2
   0   1  23 161.143 74.4350   2
   0  -1  23 207.244 79.0154   2
   0   1  24 153.647 75.1385   2
   0   2  -3 539.887 29.1858   2
   0  -2  -3 591.902 29.7273   2
   0  -2  -3 557.966 25.5053   1
   0   2   3 576.290 24.8364   1
   0   2   3 554.461 29.2250   2
   0   2  -4 1497.38 55.9450   2
   0   2   4 1636.67 48.2671   1
   0   2   4 1455.12 55.7054   2
   0  -2  -4 1576.91 55.1880   2
   0  -2   4 1625.31 57.7063   2
   0  -2  -4 1514.17 47.7083   1
   0   2   4 1545.91 60.9939   4
   0  -2   5 517.126 37.5494   2
   0  -2  -5 459.895 33.0158   2
   0   2   5 496.453 37.1323   2
   0   2   5 391.734 37.3086   4
   0   2  -5 422.091 31.4701   2
   0   2   5 477.350 28.8047   1
   0   2  -6 10580.9 216.043   2
   0   2   6 10234.8 191.706   1
   0   2   6 10604.5 220.436   2
   0   2   6 10392.1 229.739   4
   0  -2  -6 10548.0 212.381   2
   0  -2   6 9908.64 215.876   2
   0   2   7 125.874 20.0107   1
   0   2   7 115.686 30.1748   4
   0   2   7 103.636 25.2422   2
   0   2  -7 113.143 22.5800   2
   0  -2  -7 161.615 25.0277   2
   0  -2   7 140.584 27.1658   2
   0   2   8 13300.8 292.538   2
   0   2  -8 13992.3 285.900   2
   0  -2   8 13789.1 291.228   2
   0  -2  -8 14396.9 283.372   2
   0   2   8 13686.1 254.650   1
   0   2   8 13908.9 307.575   4
   0   2  -9 81.4269 22.6147   2
   0  -2   9 41.6713 25.0692   2
   0   2   9 27.4539 25.6887   2
   0   2   9 88.3880 36.5239   4
   0   2   9 47.2978 18.8721   1
   0   2  10 11842.7 235.425   1
   0   2  10 11986.6 285.246   2
   0   2  10 11400.4 292.168   4
   0  -2  10 11517.3 279.237   2
   0  -2  11 26.4516 32.6546   2
   0   2  11 24.9941 21.6330   1
   0   2  11 0.80323 30.1778   2
   0   2  12 1075.56 60.0230   1
   0  -2  12 989.367 80.9384   2
   0   2  12 893.779 76.4166   2
   0  -2  13 14.4306 34.6055   2
   0   2  13 68.5558 27.7925   1
   0   2  13 15.8696 38.7492   2
   0   2  14 8783.43 207.858   1
   0  -2  14 8484.15 266.164   2
   0   2  14 8575.99 268.106   2
   0   2  15 51.8286 44.0191   2
   0  -2  15 59.0082 44.4228   2
   0   2  15 32.3383 27.1992   1
   0  -2  16 4279.64 193.265   2
   0   2  16 4273.24 139.301   1
   0   2  16 4473.41 198.587   2
   0  -2  16 3940.80 141.914   1
   0   2  17 40.2731 48.1692   2
   0  -2  17 93.3556 51.5576   2
   0  -2  17-4.88459 29.2561   1
   0   2  17 57.3475 29.4649   1
   0   2  18 3524.33 188.043   2
   0  -2  18 3564.26 187.639   2
   0   2  19 347.374 75.9883   2
   0  -2  19 432.853 77.4165   2
   0  -2  20 564.439 92.9649   2
   0   2  20 488.254 84.0457   2
   0   2  21-11.7916 60.3253   2
   0  -2  21 109.904 66.8850   2
   0   2  22 115.333 63.3199   2
   0  -2  22 156.563 66.0477   2
   0   2  23 6.42172 63.7062   2
   0   2  24 1091.86 134.231   2
   0  -3  -3 5606.69 110.822   1
   0   3   3 5317.18 116.577   2
   0   3  -4 10628.7 205.368   2
   0  -3  -4 11011.4 193.903   1
   0   3   4 10758.3 206.028   2
   0  -3  -4 10990.3 203.451   2
   0   3   5 206.038 25.4358   2
   0  -3  -5 244.284 25.1417   2
   0   3  -5 189.494 24.5630   2
   0   3   5 178.074 26.7619   4
   0   3   5 242.557 21.8485   1
   0  -3  -5 203.562 21.7738   1
   0   3  -6 2335.42 84.4587   2
   0  -3  -6 2391.49 82.4477   2
   0   3   6 2428.93 88.4593   2
   0   3   6 2485.23 94.8913   4
   0   3   6 2376.12 71.8418   1
   0  -3  -6 2341.88 73.2454   1
   0  -3   6 2381.42 86.6385   2
   0  -3  -7 0.94293 14.8426   2
   0   3   7 13.0889 15.8506   1
   0   3   7 4.87919 23.3929   4
   0   3   7 23.4351 22.6285   2
   0   3  -7-4.12350 17.5220   2
   0  -3   7 6.03978 21.6468   2
   0   3   8 6663.38 190.136   4
   0   3   8 6684.98 149.740   1
   0   3  -8 6601.89 174.644   2
   0   3   8 6802.37 183.094   2
   0  -3   8 6719.72 178.423   2
   0   3   9 1.36266 16.9860   1
   0   3   9 1.81896 25.1607   2
   0   3  -9-22.4032 20.5260   2
   0   3   9 17.6790 27.9481   4
   0  -3   9-2.50410 28.1742   2
   0   3  10 1464.94 87.4092   2
   0   3  10 1442.11 64.5907   1
   0  -3  10 1472.74 86.9127   2
   0   3  10 1384.03 90.8883   4
   0   3  11 73.6839 39.8623   4
   0   3  11 71.3589 32.5118   2
   0   3  11 46.3722 23.8804   1
   0  -3  11 113.115 40.0097   2
   0   3  12 16167.5 311.993   1
   0   3  12 15858.8 374.751   2
   0   3  12 16323.9 391.119   4
   0  -3  12 16246.8 370.180   2
   0   3  13-71.7653 45.5130   2
   0   3  13 41.1800 25.3466   1
   0  -3  13 97.8978 45.7384   2
   0   3  14 5642.03 156.959   1
   0  -3  14 5684.88 209.091   2
   0   3  14 5636.19 213.515   2
   0   3  15 263.993 37.9063   1
   0   3  15 152.794 48.0250   2
   0  -3  15 405.860 64.9346   2
   0   3  16 1271.81 71.1240   1
   0  -3  16 1109.61 100.960   2
   0   3  16 1209.70 104.648   2
   0   3  17 110.893 47.1211   2
   0   3  17 98.1317 29.7532   1
   0  -3  17 122.367 53.9871   2
   0   3  18 144.285 55.5948   2
   0  -3  18 226.695 66.7516   2
   0  -3  19 331.656 75.2583   2
   0   3  19 218.249 67.9526   2
   0   3  20 127.025 60.3601   2
   0   3  21-5.40781 53.2067   2
   0   3  22 722.342 106.216   2
   0   3  23 125.490 72.4560   2
   0   3  24 113.151 65.2949   2
   0   3  25 177.747 80.3052   2
   0   4   1 1443.09 47.8846   3
   0  -4  -1 1449.56 47.5125   3
   0   4   2 96622.4 1440.81   3
   0  -4  -2 101718. 1442.35   3
   0  -4  -3 519.506 34.0073   3
   0   4   4 848.158 45.2988   2
   0  -4  -4 809.291 47.5429   3
   0  -4  -4 734.299 38.7132   1
   0   4  -5 108.575 22.2548   2
   0   4   5 105.397 24.0806   2
   0  -4  -5 100.922 19.1624   1
   0  -4  -6 1165.13 57.1236   2
   0   4  -6 1083.72 58.0871   2
   0  -4  -6 1044.52 50.4810   1
   0   4   6 1058.98 58.0987   2
   0   4   6 1100.53 64.1008   4
   0   4   7 1652.29 83.8963   4
   0   4   7 1697.19 80.1426   2
   0  -4  -7 1698.04 66.5445   1
   0   4   7 1579.47 61.9735   1
   0  -4  -7 1772.38 75.6850   2
   0   4  -7 1637.78 76.3918   2
   0   4   8 8368.70 219.638   4
   0   4   8 8503.83 212.447   2
   0   4   8 8139.21 174.682   1
   0   4  -8 8246.43 202.666   2
   0   4   9-30.5777 26.2535   2
   0   4  -9-28.9535 21.8084   2
   0   4   9-8.57985 17.6518   1
   0   4   9-33.5045 32.8425   4
   0  -4  10 7829.51 216.693   2
   0   4  10 8021.95 179.328   1
   0   4  10 7767.45 231.006   4
   0   4  10 7984.61 223.552   2
   0   4  11 746.990 70.8295   2
   0   4  11 784.020 49.8931   1
   0  -4  11 820.165 70.2231   2
   0   4  11 737.443 74.1627   4
   0   4  12 72.8153 24.5177   1
   0  -4  12 179.180 44.4459   2
   0   4  12 82.3537 43.0488   4
   0   4  12 63.1787 34.3767   2
   0   4  13 34.2201 23.7093   1
   0   4  13 40.4069 44.4262   4
   0  -4  13 140.460 48.8694   2
   0   4  13 0.63073 35.8048   2
   0   4  14 331.328 59.2010   2
   0  -4  14 452.517 63.9420   2
   0   4  14 215.137 33.6458   1
   0   4  15 232.524 58.5822   2
   0   4  15 252.256 36.6363   1
   0  -4  15 341.434 65.1599   2
   0   4  16 1077.29 102.954   2
   0  -4  16 1167.59 100.711   2
   0   4  17 17.5823 50.5116   2
   0   4  18 542.085 83.6871   2
   0   4  19 107.900 61.3166   2
   0   4  20 183.253 64.3252   2
   0   4  21 1001.63 116.123   2
   0   4  22 58.8378 56.8816   2
   0   4  23-68.5534 65.9160   2
   0   4  24 89.9542 73.0715   2
   0   4  25 85.4465 76.2757   2
   0   5   0 153.138 23.3121   3
   0   5   1 1397.66 51.7357   3
   0  -5  -1 1518.44 52.6557   3
   0   5   2 35177.0 560.728   3
   0  -5  -2 36424.5 561.664   3
   0   5   3 4064.30 110.330   3
   0  -5  -3 4205.72 109.568   3
   0   5   4 41231.6 649.180   2
   0  -5  -4 41771.2 663.135   3
   0   5   5 800.865 52.9457   2
   0  -5  -5 506.600 38.3176   1
   0  -5  -5 542.000 46.7769   3
   0  -5  -6 28970.1 502.577   1
   0   5   6 32077.3 528.801   2
   0   5  -6 32359.4 525.382   2
   0  -5  -7 461.311 37.5898   1
   0   5  -7 432.477 40.3257   2
   0   5   7 445.476 48.8536   4
   0   5   7 477.421 43.9132   2
   0   5   8-20.8630 29.8807   2
   0   5  -8 9.43358 18.2222   2
   0  -5  -8-17.4423 18.6454   1
   0   5   8 18.8016 29.5697   4
   0   5   9 347.881 46.0482   2
   0   5   9 424.686 55.0305   4
   0   5  10 2044.05 112.226   4
   0   5  10 2034.37 107.294   2
   0   5  11 416.813 58.7020   4
   0   5  11 437.764 57.3837   2
   0   5  12 25108.2 541.068   4
   0   5  12 26131.5 530.474   2
   0   5  13 79.6109 41.5064   2
   0   5  13-22.9366 41.4773   4
   0   5  14 7800.20 269.661   4
   0   5  14 7798.22 259.540   2
   0   5  15-41.6172 46.8357   2
   0   5  15 27.1467 47.2464   4
   0   5  16 305.894 62.9984   2
   0   5  17-1.81651 51.3996   2
   0   5  18-70.8661 63.2793   2
   0   5  19 18.9075 49.5107   2
   0   5  20 1176.73 123.280   2
   0   5  21 167.527 69.2741   2
   0   5  22 848.087 113.828   2
   0   5  23 38.8014 58.1319   2
   0   5  24-29.5553 67.4150   2
   0   5  25 67.2530 72.2424   2
   0   6   0 11326.3 210.481   3
   0  -6  -1 105.719 18.9626   3
   0   6   1 68.5585 17.4588   3
   0  -6  -2 96.2751 19.1497   3
   0   6   2 114.093 20.9265   3
   0   6   3 6.02650 18.3404   3
   0  -6  -3 1.68707 12.0814   3
   0  -6  -4 1401.31 64.6096   3
   0  -6  -5 798.202 52.5558   3
   0  -6  -5 809.393 46.3089   1
   0   6   5 852.952 52.6004   2
   0  -6  -6 4256.47 144.937   3
   0  -6  -6 4076.79 123.036   1
   0  -6  -7 1885.78 77.3398   1
   0   6  -7 1937.16 86.7548   2
   0   6   7 1963.40 88.2965   2
   0   6   8 3479.60 129.679   2
   0   6   8 3836.29 141.299   4
   0   6  -8 3547.29 126.866   2
   0  -6  -8 3723.34 113.796   1
   0   6   9 537.953 57.9509   4
   0   6   9 477.364 52.6398   2
   0  -6  -9 513.536 42.9964   1
   0   6  10 158.222 41.7839   4
   0   6  10 118.822 37.5407   2
   0   6  11 935.930 79.5150   2
   0   6  11 905.465 83.9629   4
   0   6  12 52.2646 46.1234   4
   0   6  12 93.2034 47.0681   2
   0   6  13 61.0564 48.1346   2
   0   6  13 21.6987 42.0688   4
   0   6  14 339.139 67.5417   4
   0   6  14 395.929 64.1607   2
   0   6  15-6.66288 44.6433   4
   0   6  15-61.2198 52.0527   2
   0   6  16-106.702 58.0350   2
   0   6  16 67.8817 53.5676   4
   0   6  17-69.4147 51.9004   2
   0   6  18 205.804 64.4054   2
   0   6  19 892.999 109.421   2
   0   6  20 21.3963 55.5355   2
   0   6  21 122.446 63.5632   2
   0   6  22-52.8264 56.9568   2
   0   6  23 72.7612 63.8774   2
   0   6  24 32.1212 58.1569   2
   0   6  25-5.16199 62.9699   2
   0   7   0 910.549 52.8725   3
   0   7   1 1039.39 51.1378   3
   0  -7  -1 1058.77 49.2295   3
   0   7   2 14383.5 274.352   3
   0  -7  -2 14735.6 271.435   3
   0  -7  -3 3522.55 104.749   3
   0   7   3 3310.74 105.203   3
   0  -7  -4 12083.4 245.908   3
   0   7   4 10994.8 243.291   3
   0  -7  -5 1013.04 59.7969   3
   0   7   5 1031.90 59.7200   2
   0   7   6 24158.5 436.423   2
   0  -7  -6 24199.8 423.851   1
   0  -7  -7 3409.84 116.970   1
   0   7  -7 3124.62 123.759   2
   0   7   8 12220.1 278.046   2
   0   7  -8 11651.0 270.059   2
   0  -7  -8 12067.0 255.419   1
   0   7   9 213.805 38.4669   2
   0  -7  -9 208.768 32.1151   1
   0   7   9 179.040 39.9425   4
   0   7  10 11760.9 305.026   4
   0   7  10 11546.4 289.548   2
   0  -7 -10 10808.5 252.095   1
   0   7  11 1672.60 104.502   2
   0   7  11 1520.35 102.652   4
   0   7  12 21340.0 468.565   2
   0   7  12 21267.9 482.200   4
   0   7  13-18.6591 48.1233   4
   0   7  13 22.9885 42.8997   2
   0   7  14 6066.70 239.613   4
   0   7  14 5851.52 224.764   2
   0   7  15 85.7998 48.9857   2
   0   7  15 19.2449 47.9000   4
   0   7  16 750.375 94.0862   4
   0   7  16 737.709 86.3225   2
   0   7  17-67.9979 58.3177   2
   0   7  17 52.1885 52.3624   4
   0   7  18 998.411 105.842   2
   0   7  19 238.863 69.8263   2
   0   7  20 2427.60 175.350   2
   0   7  21 113.488 62.9722   2
   0   7  22 420.592 94.6682   2
   0   7  23 35.3441 62.7441   2
   0   7  24 138.208 72.9462   2
   0   7  25-1.77016 67.5348   2
   0   8   0 35941.5 577.931   3
   0  -8  -1 323.082 30.3760   3
   0   8   1 301.575 31.3366   3
   0   8   2 1705.54 73.7841   3
   0  -8  -2 1976.33 74.5581   3
   0   8   3 1282.48 65.7386   3
   0  -8  -3 1360.67 64.2664   3
   0   8   4 604.210 47.8999   3
   0  -8  -4 555.939 45.0099   3
   0  -8  -5 1755.73 82.9641   3
   0   8   6 306.595 41.1889   2
   0  -8  -6 323.026 35.0533   1
   0  -8  -7 365.376 37.3045   1
   0   8   7 405.380 46.8065   2
   0  -8  -8 2615.01 106.596   1
   0   8   8 4461.38 152.794   2
   0   8   9 274.397 44.7182   2
   0  -8  -9 239.276 34.4904   1
   0   8  10 4474.73 166.557   2
   0   8  10 4468.12 177.154   4
   0   8  11 173.610 50.6747   2
   0   8  11 159.530 48.5672   4
   0   8  12 151.125 52.0434   4
   0   8  12 173.202 48.8972   2
   0   8  13 123.468 54.3534   4
   0   8  13 188.308 54.1760   2
   0   8  14 1077.02 97.3825   2
   0   8  14 1155.48 107.902   4
   0   8  15 11.0079 45.0226   4
   0   8  15 1.89132 42.0833   2
   0   8  16 1466.42 122.324   2
   0   8  16 1551.15 132.927   4
   0   8  17 40.6389 49.5373   2
   0   8  17 3.68268 51.1018   4
   0   8  18 529.793 81.4875   2
   0   8  18 491.600 87.9390   4
   0   8  19-78.3521 64.5242   2
   0   8  20-41.6448 62.4304   2
   0   8  21 189.509 76.0610   2
   0   8  22 179.526 79.5682   2
   0   8  23 22.7606 65.1772   2
   0   8  24 155.827 83.7761   2
   0   8  25-22.7573 70.5564   2
   0   9   0 156.635 30.9163   3
   0   9   1 3986.71 118.813   3
   0  -9  -2 6535.76 161.772   3
   0   9   2 6408.58 163.965   3
   0   9   3 80.9794 25.0755   3
   0  -9  -3 33.9752 18.0362   3
   0   9   4 16519.5 336.800   3
   0  -9  -4 17399.8 334.843   3
   0   9   5 221.099 37.2107   3
   0   9   6 21034.9 401.420   2
   0   9   7 2517.66 108.432   2
   0  -9  -7 2478.02 98.7330   1
   0   9   8 3069.95 126.268   2
   0   9   9 1227.47 90.5344   2
   0   9  10 5214.12 184.496   2
   0   9  11 317.706 57.9418   4
   0   9  11 260.784 48.2158   2
   0   9  12 8959.16 285.065   4
   0   9  12 8865.88 272.244   2
   0   9  13 137.041 47.0505   2
   0   9  13 116.013 43.5167   4
   0   9  14 6118.81 235.155   2
   0   9  14 6066.11 243.509   4
   0   9  15 36.3602 45.1265   2
   0   9  15 145.288 59.9179   4
   0   9  16 62.0340 52.4732   2
   0   9  16 13.0227 54.9642   4
   0   9  17 496.317 87.7127   4
   0   9  17 511.715 83.8059   2
   0   9  18 560.578 95.1950   4
   0   9  18 491.138 85.9248   2
   0   9  19-10.9296 62.0333   4
   0   9  19-77.1445 60.8213   2
   0   9  20 1683.11 152.380   2
   0   9  21 73.9033 61.4037   2
   0   9  22 787.961 116.657   2
   0   9  23 52.1377 64.6411   2
   0   9  24 141.783 72.4481   2
   0   9  25 42.6844 68.7064   2
   0  10   0 539.802 46.5561   3
   0  10   1 21.7223 21.2887   3
   0 -10  -2 26687.7 463.470   3
   0  10   2 25967.0 467.394   3
   0 -10  -3 2222.70 91.4667   3
   0  10   3 2334.31 96.3331   3
   0  10   4 8.30283 22.8154   3
   0  10   5 1576.53 87.2303   3
   0  10   6 3791.65 133.557   2
   0  10   7 7440.93 206.448   2
   0  10   8 24587.0 479.638   2
   0  10   9 656.672 65.4587   2
   0  10  10 17279.4 393.586   2
   0  10  11 67.5852 37.1294   2
   0  10  11 50.3881 42.5509   4
   0  10  12 274.844 59.7208   4
   0  10  12 232.663 51.8673   2
   0  10  13 70.2119 48.5967   4
   0  10  13 84.2836 50.8993   2
   0  10  14 2755.98 165.596   4
   0  10  14 2962.03 162.940   2
   0  10  15-36.7154 49.7156   4
   0  10  15 47.6833 47.4743   2
   0  10  16 2236.28 153.377   2
   0  10  16 2194.39 154.773   4
   0  10  17 103.014 63.6651   4
   0  10  17 87.3613 57.0010   2
   0  10  18 477.552 93.7256   4
   0  10  18 396.777 82.5259   2
   0  10  19 1030.56 123.769   4
   0  10  19 999.963 119.664   2
   0  10  20 91.3891 63.9443   2
   0  10  21 9.59610 60.6487   2
   0  10  22 182.172 74.9507   2
   0  10  23-26.7525 60.3393   2
   0  10  24-58.2332 74.1301   2
   0  11   0 415.193 48.2504   3
   0  11   1 1130.09 67.2479   3
   0  11   2 14943.0 316.792   3
   0 -11  -2 15690.2 308.978   3
   0  11   3 192.806 35.2962   3
   0  11   4 8751.97 224.545   3
   0  11   5 1493.66 85.5923   3
   0  11   6 4491.37 160.708   3
   0  11   7 53.5087 41.6467   2
   0  11   8 3073.83 132.414   2
   0  11   9 2110.10 113.934   2
   0  11  10 5954.62 203.192   2
   0  11  11 418.347 65.6060   2
   0  11  12 1074.05 92.9681   2
   0  11  12 1117.68 100.220   4
   0  11  13 95.3595 49.9744   4
   0  11  13 113.758 51.6301   2
   0  11  14 2001.55 135.991   2
   0  11  14 1733.23 133.372   4
   0  11  15 82.8549 63.5048   4
   0  11  15 276.735 72.6344   2
   0  11  16 72.9328 50.4257   2
   0  11  16 150.699 63.4337   4
   0  11  17 180.571 61.5557   2
   0  11  17 259.223 74.5088   4
   0  11  18 838.491 107.956   2
   0  11  18 975.533 119.769   4
   0  11  19 191.326 73.0916   2
   0  11  19 247.202 77.7764   4
   0  11  20 949.733 126.358   4
   0  11  20 778.620 110.302   2
   0  11  21 80.2060 70.4541   2
   0  11  22 79.9119 65.5694   2
   0  11  23 216.032 82.1931   2
   0  11  24 52.9291 66.4532   2
   0  12   0 4236.62 140.778   3
   0  12  -1 1055.49 65.8689   3
   0  12   1 1095.12 69.3248   3
   0  12   2 9169.76 227.584   3
   0  12   3 285.574 41.3015   3
   0  12   4 1095.10 74.0558   3
   0  12   5 70.6050 34.4677   3
   0  12   6 11316.2 287.994   3
   0  12   7 1636.84 95.7831   2
   0  12   8 33939.4 628.589   2
   0  12   9 2850.13 134.384   2
   0  12  10 12880.7 333.110   2
   0  12  11 181.177 44.7620   2
   0  12  12 1276.55 103.189   2
   0  12  13 17.7968 46.0731   4
   0  12  13-38.9338 51.2792   2
   0  12  14 5191.69 221.669   2
   0  12  14 4791.01 225.259   4
   0  12  15 43.8613 56.2486   4
   0  12  15 72.5980 48.7011   2
   0  12  16 1912.11 151.438   4
   0  12  16 1814.27 142.808   2
   0  12  17 2048.13 156.287   2
   0  12  17 2193.55 168.527   4
   0  12  18 1674.45 146.535   2
   0  12  18 1849.41 161.308   4
   0  12  19 4.52458 63.1474   2
   0  12  19 87.2241 63.5802   4
   0  12  20 256.685 88.1115   4
   0  12  20 139.768 68.8056   2
   0  12  21 502.216 97.6550   2
   0  12  21 649.631 106.955   4
   0  12  22 15.6765 60.4576   2
   0  12  23 52.9328 67.9581   2
   0  13   0 1164.71 81.1763   3
   0  13  -1 1489.58 81.6208   3
   0  13   1 1184.92 75.8144   3
   0  13   2 1374.52 82.1952   3
   0  13   3 273.528 43.7545   3
   0  13   4 239.691 37.9016   3
   0  13   5 51.8108 30.9960   3
   0  13   6 1666.62 99.4957   3
   0  13   7 1238.04 88.6908   2
   0  13   8 131.622 51.1459   2
   0  13   9 2606.89 131.970   2
   0  13  10 951.983 85.7268   2
   0  13  11 134.442 52.2360   2
   0  13  12 1507.90 113.438   2
   0  13  13 66.4615 50.7968   4
   0  13  13 29.6292 49.4260   2
   0  13  14-49.5753 55.3605   4
   0  13  14 59.8207 47.9827   2
   0  13  15 187.396 70.2238   2
   0  13  15 55.6482 59.5448   4
   0  13  16 147.154 67.0330   2
   0  13  16 50.4249 57.9049   4
   0  13  17 251.606 79.0347   2
   0  13  17 246.394 78.0873   4
   0  13  18 1038.40 122.150   2
   0  13  18 1155.90 133.727   4
   0  13  19 12.4466 55.4900   2
   0  13  19 29.1778 68.7034   4
   0  13  20 5.22518 63.2678   2
   0  13  20 11.5121 61.0379   4
   0  13  21 13.1363 62.0822   2
   0  13  21-50.3380 73.9025   4
   0  13  22 51.4018 63.3078   2
   0  13  22 107.780 78.5367   4
   0  13  23 100.516 69.6055   2
   0  14   0 26440.1 499.986   3
   0  14  -1 2629.73 113.462   3
   0  14   1 2583.95 115.999   3
   0  14   2 114.113 32.0485   3
   0  14   3 333.199 48.1301   3
   0  14   4 24.6888 27.6299   3
   0  14   5 117.114 39.3799   3
   0  14   6 18084.3 407.093   3
   0  14   8 17785.3 399.300   2
   0  14   9 2500.62 133.234   2
   0  14  10 6409.11 223.521   2
   0  14  11 224.914 64.0355   2
   0  14  12 2738.34 152.104   2
   0  14  13-78.2109 57.3278   2
   0  14  14 634.698 90.6180   4
   0  14  14 442.142 71.4685   2
   0  14  15 680.152 95.2696   4
   0  14  15 686.437 95.1869   2
   0  14  16 5912.32 269.298   4
   0  14  16 5683.68 256.497   2
   0  14  17 169.874 72.2029   2
   0  14  17 215.736 70.1808   4
   0  14  18 867.692 112.581   2
   0  14  18 1062.14 127.929   4
   0  14  19 106.226 70.2981   4
   0  14  19-14.4537 57.8239   2
   0  14  20 287.836 88.0863   4
   0  14  20 355.998 88.3688   2
   0  14  21 28.9688 62.6006   4
   0  14  21-19.0382 72.8152   2
   0  14  22 112.494 80.6453   4
   0  14  22 60.2295 71.9132   2
   0  14  23-112.537 82.7833   2
   0  15   0 946.367 81.2778   3
   0  15  -1 700.648 64.2672   3
   0  15   1 608.899 61.6850   3
   0  15   2 3568.70 142.931   3
   0  15   3 373.273 52.6699   3
   0  15   4 2073.90 112.389   3
   0  15   5 2347.17 122.548   3
   0  15   6 2223.58 125.230   3
   0  15   7 235.538 56.4390   3
   0  15   8 167.326 53.7183   2
   0  15   9 255.912 59.0741   2
   0  15  10 1586.91 111.310   2
   0  15  11 102.958 54.6871   2
   0  15  12 1860.46 132.393   2
   0  15  13-69.8665 56.1909   2
   0  15  14 319.539 74.9906   4
   0  15  14 320.409 67.3143   2
   0  15  15 44.1589 65.5286   2
   0  15  15 8.57300 52.5022   4
   0  15  16 130.393 57.3305   4
   0  15  16 297.810 78.6447   2
   0  15  17 134.253 65.0137   2
   0  15  17-3.01633 59.0940   4
   0  15  18 455.108 93.5987   2
   0  15  18 672.701 119.583   4
   0  15  19 65.2799 66.9859   4
   0  15  19-40.9129 54.2654   2
   0  15  20-20.4981 64.6921   2
   0  15  20-53.0029 75.6034   4
   0  15  21 22.0496 68.3220   4
   0  15  21-14.5387 69.0164   2
   0  15  22 135.589 80.3263   2
   0  15  22 200.257 81.6710   4
   0  16   0 26679.8 522.315   3
   0  16  -1 1417.98 89.3778   3
   0  16   1 1441.32 92.3549   3
   0  16   2 6698.23 211.446   3
   0  16  -2 6695.27 205.305   3
   0  16   3-6.81056 36.4086   3
   0  16   4 3614.69 156.243   3
   0  16   5 415.147 58.6286   3
   0  16   6 2939.31 144.812   3
   0  16   7 275.562 54.0350   3
   0  16   8 6061.67 213.762   2
   0  16   9 615.928 76.1542   2
   0  16  10 3764.07 173.701   2
   0  16  11 780.152 89.7634   2
   0  16  12 171.997 60.3515   2
   0  16  13 450.941 85.2696   2
   0  16  14-43.6533 56.6615   2
   0  16  15-25.5740 54.7460   4
   0  16  15-126.916 64.2601   2
   0  16  16 1048.70 122.325   4
   0  16  16 1037.06 117.991   2
   0  16  17 833.199 117.202   4
   0  16  17 773.664 108.593   2
   0  16  18 1075.90 126.202   2
   0  16  18 821.074 115.216   4
   0  16  19 495.106 106.945   4
   0  16  19 440.900 100.511   2
   0  16  20 183.637 75.4601   4
   0  16  20 13.8874 60.5924   2
   0  16  21-80.2782 79.2657   4
   0  16  21 1.78914 70.2152   2
   0  17   0 373.095 59.7025   3
   0  17   1 20.0312 33.4057   3
   0  17  -1 71.6959 39.0076   3
   0  17  -2 8077.51 233.025   3
   0  17   2 7757.82 237.537   3
   0  17   3 622.631 70.8400   3
   0  17   4 15954.7 384.079   3
   0  17   5 409.713 59.7450   3
   0  17   6 5151.87 201.053   3
   0  17   7 944.847 92.1033   3
   0  17   8 45.2949 47.7682   2
   0  17   9 684.975 81.3040   2
   0  17  10 556.424 77.9418   2
   0  17  11 161.771 54.7263   2
   0  17  12 1263.15 109.948   2
   0  17  13 84.8879 54.3744   2
   0  17  14 166.796 59.6425   2
   0  17  15-51.7664 69.9123   2
   0  17  15 27.0792 59.2391   4
   0  17  16 118.981 71.3489   4
   0  17  16 152.315 68.3653   2
   0  17  17 33.3108 63.4353   2
   0  17  17-10.8991 63.8541   4
   0  17  18 244.626 79.9550   2
   0  17  18 232.973 76.0362   4
   0  17  19 303.565 94.1212   4
   0  17  19 249.925 79.2371   2
   0  17  20 663.575 122.347   2
   0  17  20 816.136 124.248   4
   0  17  21 137.340 93.2601   4
   0  17  21-3.40523 70.3293   2
   0  18   0 3363.77 149.754   3
   0  18   1 543.216 61.9707   3
   0  18  -1 586.775 64.9760   3
   0  18  -2 664.993 71.2459   3
   0  18   2 613.695 69.9303   3
   0  18   3 201.121 52.1703   3
   0  18   4 57.9545 44.5065   3
   0  18   5 144.517 50.8683   3
   0  18   6 1014.80 94.9917   3
   0  18   7 1028.11 100.073   3
   0  18   8 470.950 72.9912   2
   0  18   9 286.693 63.8027   2
   0  18  10 1674.68 124.000   2
   0  18  11 1102.32 107.095   2
   0  18  12 106.130 54.3978   2
   0  18  13 373.898 73.4816   2
   0  18  14 522.775 90.0321   2
   0  18  15 120.697 76.7676   4
   0  18  15-2.12954 61.0817   2
   0  18  16 303.911 80.0005   4
   0  18  16 343.383 78.1324   2
   0  18  17 2.14679 57.1625   4
   0  18  17 4.94609 60.3823   2
   0  18  18 208.789 79.8901   4
   0  18  18 295.605 83.7506   2
   0  18  19 10.9370 56.6270   2
   0  18  19-34.9351 71.1243   4
   0  18  20 125.571 83.3544   2
   0  18  20 10.4885 61.3381   4
   0  19   0 217.217 52.1052   3
   0  19  -1 1340.73 99.2174   3
   0  19   1 1174.59 93.3924   3
   0  19   2 13114.4 347.984   3
   0  19  -2 13627.1 342.208   3
   0  19  -3 1571.13 103.854   3
   0  19   3 1472.03 105.918   3
   0  19   4 13138.1 352.389   3
   0  19   5 2135.73 129.183   3
   0  19   6 6423.52 237.897   3
   0  19   7-3.96355 43.2944   3
   0  19   8 151.456 50.7791   2
   0  19   9 596.930 83.6497   2
   0  19  10 326.730 70.9350   2
   0  19  11 276.611 62.9360   2
   0  19  12 2737.80 167.771   2
   0  19  13 284.080 66.0345   2
   0  19  14 1366.30 131.335   2
   0  19  15 384.696 86.5328   2
   0  19  16-64.0318 69.0251   2
   0  19  16-11.7362 70.3258   4
   0  19  17-39.5685 63.6772   4
   0  19  17 13.6160 62.5642   2
   0  19  18 474.101 101.905   4
   0  19  18 478.051 97.3615   2
   0  19  19 107.835 77.4164   2
   0  19  19 112.646 73.2287   4
   0  19  20 1010.40 139.331   4
   0  19  20 740.365 126.081   2
   0  20   0 2945.48 147.255   3
   0  20   1 184.885 47.4972   3
   0  20  -1 213.955 53.3317   3
   0  20  -2 804.786 81.7473   3
   0  20   2 780.203 82.4849   3
   0  20  -3 344.598 62.0898   3
   0  20   3 300.576 61.5920   3
   0  20   4 154.498 53.4043   3
   0  20   5 75.3184 48.7845   3
   0  20   6 1835.72 130.083   3
   0  20   7-69.9399 56.3412   3
   0  20   8 193.169 60.3131   3
   0  20   8 313.029 71.0527   2
   0  20   9 634.924 87.5903   2
   0  20  10-14.3262 41.6314   2
   0  20  11 351.418 75.1424   2
   0  20  12-0.93730 49.3488   2
   0  20  13 52.7716 62.5379   2
   0  20  14-72.9882 64.3312   2
   0  20  15-117.329 76.6944   2
   0  20  16 82.2463 66.6120   2
   0  20  16 164.633 75.9243   4
   0  20  17 203.942 85.6566   4
   0  20  17 214.750 79.7733   2
   0  20  18 35.6272 66.2742   2
   0  20  18 61.3150 63.0559   4
   0  20  19 174.543 86.9874   4
   0  20  19 7.68175 67.0313   2
   0  21   0 270.032 57.7960   3
   0  21  -1 41.2737 42.9931   3
   0  21   1-61.8487 50.5374   3
   0  21   2 4251.57 190.665   3
   0  21  -2 4657.73 191.397   3
   0  21  -3 2314.43 133.964   3
   0  21   3 2162.34 137.682   3
   0  21  -4 11144.2 316.085   3
   0  21   4 10830.9 330.673   3
   0  21   5 2423.48 149.165   3
   0  21   6 3366.47 176.634   3
   0  21   7 281.288 62.2061   3
   0  21   8 192.366 62.7872   2
   0  21   8 146.687 59.9814   3
   0  21   9 490.665 81.8570   2
   0  21  10 1035.15 110.606   2
   0  21  11 853.478 102.892   2
   0  21  12 3645.01 201.656   2
   0  21  13 360.240 75.7130   2
   0  21  14 762.263 113.802   2
   0  21  15 103.069 57.4438   2
   0  21  16-164.708 91.2964   2
   0  21  16 148.759 79.6648   4
   0  21  17 177.627 82.5423   2
   0  21  17 242.680 88.6188   4
   0  21  18 502.924 102.286   2
   0  21  18 514.349 106.546   4
   0  21  19 53.2335 75.8084   4
   0  22   0 3471.84 171.524   3
   0  22   1-67.3085 52.9632   3
   0  22  -1 10.8499 42.6591   3
   0  22  -2 1875.69 126.876   3
   0  22   2 2031.49 132.632   3
   0  22   3 490.122 75.0339   3
   0  22  -3 509.254 76.7857   3
   0  22  -4 1405.01 111.695   3
   0  22   4 1294.31 112.732   3
   0  22   5 7.74202 45.4788   3
   0  22   6 2186.98 146.192   3
   0  22   7 406.838 74.5498   3
   0  22   8 908.912 99.9682   2
   0  22   8 689.417 92.8696   3
   0  22   9 152.833 60.4775   2
   0  22  10 188.578 72.2018   2
   0  22  11 64.5687 55.3350   2
   0  22  12 476.147 86.8444   2
   0  22  13 118.265 61.8239   2
   0  22  14-95.1619 69.9504   2
   0  22  15 70.6422 65.5062   2
   0  22  16 196.819 70.6439   2
   0  22  17 68.7049 73.5215   4
   0  22  17 1.29156 62.0960   2
   0  22  18 209.643 97.1778   4
   0  23   0 392.434 70.7434   3
   0  23  -1 784.461 86.0132   3
   0  23   1 802.624 88.0851   3
   0  23   2 6079.81 241.181   3
   0  23  -2 5992.08 233.436   3
   0  23  -3 362.144 69.1843   3
   0  23   3 130.916 52.7311   3
   0  23  -4 5642.86 227.202   3
   0  23   4 5696.35 237.741   3
   0  23  -5 216.180 66.0210   3
   0  23   5 146.643 58.9784   3
   0  23   6 1863.19 138.140   3
   0  23   7 2138.13 152.394   3
   0  23   8 25.3984 47.1118   3
   0  23   8 78.7567 61.4780   2
   0  23   9 83.4901 60.7082   2
   0  23  10 1496.86 135.114   2
   0  23  11 492.413 84.0921   2
   0  23  12 1977.89 156.020   2
   0  23  13 244.863 77.5170   2
   0  23  14 455.151 80.9352   2
   0  23  15 133.402 57.9838   2
   0  23  16-132.281 85.1809   2
   0  23  17 13.3007 68.9062   2
   0  23  17 45.6873 65.6490   4
   0  24   0 1316.39 116.456   3
   0  24  -1 1491.03 118.669   3
   0  24   1 1387.91 114.640   3
   0  24   2 459.083 72.4944   3
   0  24  -2 413.253 70.6288   3
   0  24   3 367.660 72.1602   3
   0  24  -3 501.505 75.2667   3
   0  24  -4 454.821 76.5924   3
   0  24   4 320.591 68.6754   3
   0  24  -5 94.5631 55.9373   3
   0  24   5 19.8531 49.3859   3
   0  24   6 925.661 102.765   3
   0  24   7 554.712 85.2310   3
   0  24   8 1065.81 110.625   2
   0  24   8 979.670 111.918   3
   0  24   9 914.330 106.170   2
   0  24  10 1966.29 152.266   2
   0  24  11 97.5266 64.5588   2
   0  24  12 157.584 63.5410   2
   0  24  13-53.2600 66.6505   2
   0  24  14 343.128 90.7287   2
   0  24  15 228.261 72.3655   2
   0  24  16 443.695 92.8509   2
   0  25   0 503.340 84.2130   3
   0  25  -1 3.39058 48.0038   3
   0  25   1 10.0881 43.2045   3
   0  25   2 1575.20 128.281   3
   0  25  -2 1309.94 117.136   3
   0  25  -3 145.014 58.0526   3
   0  25   3 227.073 65.9748   3
   0  25   4 998.660 108.595   3
   0  25  -4 1190.70 112.076   3
   0  25  -5 194.175 59.3041   3
   0  25   5 220.274 65.7114   3
   0  25   6 49.7180 49.8463   3
   0  25  -6 205.364 62.4631   3
   0  25   7 1520.60 139.498   3
   0  25   8 131.444 63.9308   2
   0  25   8 90.7924 61.5025   3
   0  25   9 238.381 79.7589   2
   0  25  10 643.358 99.0850   2
   0  25  11 107.162 67.7655   2
   0  25  12 230.113 70.3649   2
   0  25  13 217.482 76.6222   2
   0  25  14 227.807 86.5685   2
   0  25  15-53.4453 70.3331   2
   0  26   0 3563.79 195.059   3
   0  26  -1 1272.45 117.207   3
   0  26   1 1033.22 106.549   3
   0  26   2 1373.23 124.082   3
   0  26  -2 1155.25 110.982   3
   0  26  -3 354.082 68.9501   3
   0  26   3 371.690 75.1317   3
   0  26   4 98.9555 51.2965   3
   0  26  -4 35.0626 45.9415   3
   0  26   5 218.865 66.4921   3
   0  26  -5 97.4770 54.0076   3
   0  26  -6 105.209 51.7426   3
   0  26   6 72.5510 56.0518   3
   0  26   7 827.781 106.233   3
   0  26  -7 795.053 98.1636   3
   0  26   8 2035.69 153.684   2
   0  26   8 2022.89 159.355   3
   0  26   9 612.323 102.001   2
   0  26  10 1523.72 141.387   2
   0  26  11 55.8685 58.9786   2
   0  26  12 68.2330 54.6741   2
   0  26  13 101.228 60.8621   2
   0  26  14 155.976 85.3676   2
   0  27   0 375.681 75.0355   3
   0  27  -1-42.2787 45.5293   3
   0  27   1-13.0943 53.9217   3
   0  27   2 59.8617 51.9251   3
   0  27  -2 92.7572 56.8595   3
   0  27   3 35.6717 54.0159   3
   0  27  -3 93.2294 53.5530   3
   0  27   4 13.3251 51.5100   3
   0  27  -4 21.6532 46.8867   3
   0  27   5 76.6685 50.9775   3
   0  27  -5 193.658 62.6955   3
   0  27  -6 149.044 65.6782   3
   0  27   6 62.5049 56.5558   3
   0  27   7 96.7422 64.8255   3
   0  27  -7 169.221 66.3348   3
   0  27   8 32.7531 60.5849   3
   0  27   8 182.975 78.6470   2
   0  27   9 142.016 75.1554   2
   0  27  10 115.063 77.3209   2
   0  27  11 130.712 69.1755   2
   0  27  12 248.574 74.8120   2
   0  27  13-60.3996 71.6407   2
   0  28   0 2268.68 161.797   3
   0  28  -1 763.797 98.6655   3
   0  28   1 821.151 101.566   3
   0  28  -2 978.198 108.874   3
   0  28   2 843.725 106.968   3
   0  28  -3 389.880 81.4224   3
   0  28   3 371.324 79.3162   3
   0  28  -4 99.7081 59.2592   3
   0  28   4 43.5946 49.2791   3
   0  28   5-24.0721 55.7805   3
   0  28  -5-4.67625 44.9644   3
   0  28   6 82.4330 62.6036   3
   0  28  -6 145.474 65.2565   3
   0  28  -7 391.236 82.5914   3
   0  28   7 294.547 77.0989   3
   0  28  -8 1979.02 152.900   3
   0  28   8 1645.01 151.842   3
   0  28   8 1864.71 153.400   2
   0  28   9 615.060 101.591   2
   0  28  10 1249.55 133.187   2
   0  28  11 119.457 62.6382   2
   0  29   0 362.217 82.7574   3
   0  29  -1-64.8601 61.0462   3
   0  29   1-45.5735 56.9274   3
   0  29   2 205.806 65.4007   3
   0  29  -2 202.214 67.4479   3
   0  29   3 94.8781 62.2174   3
   0  29  -3 30.8697 50.1223   3
   0  29   4 395.474 83.7247   3
   0  29  -4 377.070 79.1144   3
   0  29  -5 274.469 69.4492   3
   0  29   5 131.713 63.5195   3
   0  29  -6 392.078 82.9901   3
   0  29   6 233.049 76.1225   3
   0  29  -7 178.406 68.6932   3
   0  29   7 61.0667 66.7689   3
   0  29   7 317.743 80.5168   2
   0  29   8 115.776 75.2491   2
   0  29  -8 122.483 62.4749   3
   0  29   8 122.736 73.8901   3
   0  29  -9 172.385 66.2035   3
   0  29   9 229.784 81.5574   2
   0  29  10 381.526 116.899   2
   0  30   0 845.271 109.358   3
   0  30   1 689.398 103.468   3
   0  30  -1 705.619 98.2679   3
   0  30  -2 419.878 83.1668   3
   0  30   2 437.207 89.0557   3
   0  30   3 32.5040 49.6028   3
   0  30  -3 4.00768 55.7417   3
   0  30   4 83.3592 63.0368   3
   0  30  -4 93.4918 62.7330   3
   0  30  -5 9.78813 47.9896   3
   0  30   5-33.2037 67.6037   3
   0  30  -6 588.611 97.7283   3
   0  30   6 478.166 97.5363   3
   0  30  -7 429.096 86.0614   3
   0  30   7 760.968 113.470   2
   0  30   7 293.239 89.7067   3
   0  30   8 968.802 124.172   2
   0  30   8 612.080 108.776   3
   0  30  -8 730.746 105.817   3
   0  30   9 360.611 94.6251   2
   0  30  -9 521.999 96.2148   3
   0  30 -10 407.499 91.0756   3
   0  31   0 244.647 78.8033   3
   0  31  -1-63.8368 67.9317   3
   0  31   1 3.61405 60.4381   3
   0  31  -2 196.499 70.7423   3
   0  31   2 318.875 83.9045   3
   0  31  -3 255.262 72.2454   3
   0  31   3 248.060 73.5197   3
   0  31  -4 880.428 113.158   3
   0  31   4 829.943 112.215   3
   0  31  -5 80.7933 63.4790   3
   0  31   5 129.369 61.0422   3
   0  31  -6 473.969 93.9267   3
   0  31   6 692.448 115.670   3
   0  31   7 190.421 66.7581   3
   0  31  -7 140.264 65.3539   3
   0  31   7 398.558 88.7034   2
   0  31  -8-36.6464 53.6462   3
   0  31  -9 127.822 72.7622   3
   0  31 -10 356.305 89.8890   3
   0  31 -11 421.206 99.4547   3
   0  32   0 196.287 69.3024   3
   0  32   1 224.196 80.7781   3
   0  32  -1 36.9230 57.0611   3
   0  32   2 56.4023 66.2573   3
   0  32  -2 89.8643 54.6490   3
   0  32   3 116.442 75.4486   3
   0  32  -3-33.2845 62.6830   3
   0  32  -4 78.8631 67.7706   3
   0  32   4 91.9100 71.2236   3
   0  32   5 1.42158 62.9759   3
   0  32  -5 8.57456 51.7084   3
   0  32   6 51.5489 66.7550   3
   0  32  -6 204.093 81.2320   3
   0  32  -7 165.678 74.0977   3
   0  32   7-62.0822 74.4650   3
   0  32  -8 139.192 63.6276   3
   0  32  -9 44.4523 55.7332   3
   0  33   0 119.903 67.3834   3
   0  33  -1 26.6141 59.3360   3
   0  33   1 42.8255 62.7438   3
   0  33  -2 695.301 107.750   3
   0  33   2 957.461 126.473   3
   0  33  -3 237.706 76.7452   3
   0  33   3 203.210 75.9726   3
   0  33  -4 1000.65 125.632   3
   0  33   4 993.977 129.501   3
   0  33  -5 498.815 98.0401   3
   0  33   5 569.370 110.318   3
   0  33  -6 417.157 89.5590   3
   0  33   6 288.726 81.2864   3
   0  33   7 134.015 74.4496   3
   0  33  -7 103.611 66.6571   3
   0  33  -8 18.8033 62.7984   3
   0  34   0 87.1463 57.4320   3
   0  34  -1 39.8755 54.7410   3
   0  34   1 15.3792 62.2412   3
   0  34   2-50.2874 72.3642   3
   0  34  -2 2.98515 66.7408   3
   0  34   3 39.8250 67.9347   3
   0  34  -3 34.6685 55.6379   3
   0  34  -4 131.168 73.8471   3
   0  34   4 0.41987 59.3210   3
   0  34  -5 14.7032 54.2996   3
   0  34  -6 96.0099 73.3214   3
   0  35  -2 118.628 67.0088   3
   0  35  -3 329.775 87.0054   3
  -1   0  25 194.830 91.7860   2
  -1   0  24 241.855 88.2512   2
  -1   0  23 145.627 75.8642   2
  -1   0  22 279.890 83.3661   2
  -1   0  21-16.5975 55.1701   2
  -1   0  20 2.40354 55.8324   2
  -1   0  19-24.3646 51.1706   2
  -1   0  18 58.6186 54.0346   2
  -1   0  17 12.1484 46.6036   2
  -1   0  16 489.000 76.5776   2
  -1   0  16 525.336 40.4111   1
  -1   0  15-79.2684 54.4878   2
  -1   0  15 8.09875 16.8705   1
  -1   0  14 52.4551 41.1689   2
  -1   0  14 151.178 24.8511   1
  -1   0  13-5.64573 16.1074   1
  -1   0  13-17.0723 40.5118   2
  -1   0  12 2.40111 33.1420   2
  -1   0  12 19.8213 15.0012   1
  -1   0  11-10.6204 12.6998   1
  -1   0  11-12.6276 33.4914   2
  -1   0  10 17121.5 290.038   1
  -1   0  10 18158.3 387.734   2
  -1   0   9-67.2141 38.6933   2
  -1   0   9-7.89406 11.2420   1
  -1   0   8 884.553 33.8106   1
  -1   0   8 955.083 67.1773   2
   1   0  -7-11.9140 22.0545   4
   1   0  -7-1.27277 18.2962   2
  -1   0   7-25.7715 28.5360   2
   1   0  -6 3041.92 105.343   2
  -1   0   6 3068.44 109.691   2
   1   0  -6 3251.16 113.297   4
  -1   0   5-15.3937 22.7929   2
   1   0  -5-7.75152 17.2904   2
   1   0  -5-0.93216 15.9961   4
   1   0  -4 17310.4 313.529   4
  -1   0   4 16732.7 308.644   2
   1   0  -4 17076.7 308.303   2
   1   0  -3 5.49127 11.7855   2
   1   0  -3 12.2247 13.6707   4
  -1   0   3-25.4112 18.4453   2
   1   0   3-8.32041 6.72646   2
  -1   0  -3 7.94104 8.13198   4
  -1   0  -4 42410.4 645.796   4
  -1   0  -4 43131.9 628.214   2
   1   0   4 43029.9 632.527   2
  -1   0  -5-5.82682 14.1232   4
   1   0   5 3.32484 12.0741   2
  -1   0  -5-0.01510 10.6892   2
   1   0   6 5355.31 127.128   2
  -1   0  -6 5495.96 121.568   2
  -1   0  -6 5556.98 139.834   4
  -1   0  -7-27.0629 21.3275   4
   1   0   7-2.53428 17.1484   2
  -1   0  -7-2.63372 13.4244   2
  -1   0  -8 367.025 32.0085   2
   1   0   8 324.237 34.6215   2
  -1   0  -8 336.397 38.3150   4
   1   0   9-5.78337 24.0473   2
  -1   0  -9-8.33365 17.5737   2
   1   0  10 4591.35 146.387   2
  -1   0 -10 4512.58 133.736   2
   1   0  11-26.9243 29.8954   2
   1   0  12 1388.67 87.1124   2
   1   0  13-22.7926 33.8635   2
   1   0  13-55.9566 33.9210   1
   1   0  14 208.491 40.3471   1
   1   0  14 249.342 49.5358   2
   1   0  15-47.8924 42.9225   2
   1   0  15-48.0208 39.7579   1
   1   0  16 29.2950 33.9527   1
   1   0  16 84.2445 46.6382   2
   1   0  17-34.5832 43.4516   2
   1   0  17-36.1378 34.9753   1
   1   0  18 58.3745 45.1742   2
   1   0  18-6.11367 30.5150   1
   1   0  19 11.7256 45.9433   2
   1   0  20-1.10662 45.4333   2
   1   0  21 54.3322 55.2551   2
   1   0  22 152.808 60.5754   2
  -1   1  25 779.975 126.990   2
  -1   1  24 51.0430 70.5641   2
  -1  -1  23 703.611 112.752   2
  -1   1  23 647.840 110.393   2
  -1   1  22 48.3394 60.6025   2
  -1  -1  22 45.1132 60.5441   2
  -1   1  21 45.5114 59.1231   2
  -1  -1  21 42.8538 61.0517   2
  -1   1  20 62.7961 61.3423   2
  -1  -1  20 51.1194 58.0500   2
  -1   1  19 2494.30 169.394   2
  -1  -1  19 2372.90 166.771   2
  -1   1  18 398.697 81.7234   2
  -1  -1  18 499.161 87.9809   2
  -1   1  17 5752.02 248.180   2
  -1  -1  17 6640.42 261.325   2
  -1   1  16-7.77334 16.1288   1
  -1  -1  16 1.18375 49.6892   2
  -1   1  16 49.5141 53.3238   2
  -1  -1  16 3.37209 18.8054   1
  -1   1  15 4723.29 203.832   2
  -1   1  15 4785.68 121.601   1
  -1  -1  15 4823.38 205.781   2
  -1  -1  15 4558.38 124.721   1
  -1   1  14 13.5969 40.2803   2
  -1  -1  14 35.8026 19.3407   1
  -1  -1  14 36.1359 40.4236   2
  -1   1  14 65.8087 20.5654   1
  -1   1  13 2528.82 79.7073   1
  -1   1  13 2650.38 140.569   2
  -1  -1  13 2591.70 140.925   2
  -1  -1  13 2649.13 84.6875   1
  -1   1  12-38.8953 37.9467   2
  -1  -1  12 8.65316 33.7186   2
  -1   1  12 32.6264 15.3203   1
  -1   1  11 1977.81 111.293   2
  -1   1  11 1930.35 62.9251   1
  -1  -1  11 1969.41 111.582   2
  -1  -1  10 1048.76 79.0102   2
  -1   1  10 1052.80 41.2632   1
  -1   1  10 1037.48 78.7812   2
  -1  -1   9 8405.58 225.112   2
  -1   1   9 7588.39 144.049   1
  -1   1   9 8276.65 222.699   2
  -1  -1   8 1199.04 75.1282   2
  -1   1   8 1026.81 70.3615   2
  -1   1   8 1134.06 37.1756   1
   1   1  -7 11138.7 254.974   4
   1   1  -7 10716.9 243.414   2
  -1   1   7 10916.5 248.816   2
  -1   1   7 10279.7 172.423   1
  -1   1   7 10828.9 252.740   4
   1  -1  -7 10983.1 241.967   2
   1  -1  -7 10835.4 252.133   4
  -1  -1   7 10455.3 245.816   2
   1  -1  -6 2578.52 100.637   4
   1   1  -6 2745.42 104.407   4
   1  -1  -6 2651.73 96.1986   2
  -1  -1   6 2562.93 99.3168   2
  -1   1   6 2565.62 99.7438   2
  -1   1   6 2611.77 103.870   4
   1   1  -6 2558.28 97.7887   2
  -1  -1   5 18545.2 344.834   2
   1   1  -5 18469.3 348.297   4
   1  -1  -5 18771.1 348.964   4
   1  -1  -5 18954.8 340.241   2
   1   1  -5 18538.0 342.858   2
  -1   1   5 18609.3 348.555   4
  -1   1   5 18482.8 344.058   2
  -1   1   4 55155.6 855.911   2
   1  -1  -4 56203.2 852.753   2
  -1  -1   4 55595.1 857.538   2
   1  -1  -4 55807.5 860.106   4
  -1   1   4 54948.0 859.495   4
   1   1  -4 56093.6 856.901   2
   1  -1  -3 6083.53 134.394   4
   1   1  -3 5801.66 133.892   2
   1  -1  -3 5710.53 131.085   2
  -1   1   3 5898.20 134.223   4
  -1   1   3 5940.08 133.212   2
  -1  -1   3 5807.67 133.875   2
   1   1   3 17314.8 277.563   4
  -1   1  -4 2908.61 65.5750   2
   1  -1   4 2889.64 68.9136   2
   1   1   4 2910.35 79.0627   4
   1   1   4 2944.68 71.5138   2
   1   1   5 10066.4 188.939   2
  -1   1  -5 9958.24 200.079   4
  -1   1  -5 10187.0 181.687   2
   1   1   5 9984.42 201.769   4
   1  -1   5 10102.9 185.626   2
  -1  -1  -5 10150.6 200.256   4
  -1  -1  -5 10224.5 184.455   2
   1   1   6-8.06181 15.5769   2
  -1  -1  -6 1.41801 14.7578   4
  -1   1  -6 30.3579 17.0941   4
  -1  -1  -6 28.1681 14.5569   2
   1   1   6 7.86050 18.2933   4
  -1   1  -6 1.59736 12.0680   2
   1  -1   6-11.2778 14.7387   2
  -1   1  -7 15170.0 274.202   2
  -1   1  -7 14964.1 298.392   4
   1   1   7 15053.5 300.525   4
   1   1   7 15013.9 285.376   2
  -1  -1  -7 14831.3 296.355   4
  -1  -1  -7 15124.9 275.161   2
   1  -1   7 15319.6 282.851   2
  -1   1  -8 118.047 25.0813   4
   1  -1   8 82.4245 21.5113   2
  -1   1  -8 104.781 20.5582   2
  -1  -1  -8 145.474 27.6039   4
   1   1   8 70.0752 21.3574   2
  -1  -1  -8 144.786 23.7100   2
   1   1   9 11401.2 246.901   1
   1   1   9 11337.5 252.722   2
   1  -1   9 11449.8 249.189   2
  -1  -1  -9 11475.8 237.510   2
  -1   1  -9 11181.4 236.182   2
   1   1  10 4418.16 140.590   1
   1  -1  10 4495.79 145.135   2
  -1   1 -10 4518.90 134.381   2
   1   1  10 4589.44 147.720   2
   1   1  11 3364.07 125.241   1
   1  -1  11 3799.66 138.498   2
   1   1  11 3873.79 142.267   2
   1  -1  12 375.932 48.9042   2
   1   1  12 467.494 54.3959   2
   1   1  12 379.687 44.1740   1
   1   1  13 1382.93 82.9841   1
   1   1  13 1356.91 91.1661   2
   1  -1  13 1217.48 84.9433   2
   1   1  14 25.5066 34.7204   2
   1   1  14 17.7191 28.6850   1
   1  -1  14 20.0361 32.3893   2
   1   1  15 5364.27 203.899   2
   1   1  15 5444.08 178.131   1
   1  -1  15 5257.04 178.329   1
   1  -1  15 5613.56 202.602   2
   1  -1  16 350.401 49.4606   1
   1   1  16 554.533 73.0288   2
   1  -1  16 406.255 63.8673   2
   1   1  16 528.002 58.3176   1
   1   1  17 4633.39 173.470   1
   1   1  17 4835.94 204.542   2
   1  -1  17 4862.10 175.633   1
   1  -1  17 4975.51 206.429   2
   1   1  18 121.940 42.2231   1
   1  -1  18 103.573 50.9990   2
   1  -1  18 35.3280 31.9093   1
   1   1  18 69.3575 50.2042   2
   1  -1  19 1213.06 113.399   2
   1   1  19 1214.22 111.895   2
   1   1  20 195.523 61.8074   2
   1  -1  20 83.9529 50.6434   2
   1   1  21-45.6856 53.2248   2
   1  -1  21 27.5986 49.0814   2
   1   1  22 25.1087 50.1184   2
   1  -1  22 133.788 67.5386   2
  -1   2  26 78.3287 68.5775   2
  -1   2  25 81.6388 78.3417   2
  -1   2  24 94.4346 78.6965   2
  -1   2  23 101.967 69.8383   2
  -1   2  22 80.4707 58.8170   2
  -1  -2  21 600.939 98.3201   2
  -1   2  21 511.894 91.7790   2
  -1  -2  20 16.9175 50.1598   2
  -1   2  20-16.4052 54.9816   2
  -1   2  19-22.0790 53.2641   2
  -1  -2  19 86.8054 58.6037   2
  -1   2  18 743.383 96.7569   2
  -1  -2  18 852.881 102.853   2
  -1   2  17-73.7269 58.2222   2
  -1  -2  17 24.0936 47.9295   2
  -1  -2  16 5.95225 43.6862   2
  -1  -2  16 21.8157 21.6622   1
  -1   2  16 45.2791 50.3055   2
  -1  -2  15 525.885 40.0738   1
  -1  -2  15 573.512 80.1773   2
  -1   2  15 455.379 71.2028   2
  -1  -2  14 73.5478 47.5436   2
  -1   2  14 21.0242 43.1240   2
  -1   2  13 7531.73 251.623   2
  -1   2  13 7875.37 162.843   1
  -1  -2  13 7695.82 252.018   2
  -1  -2  12 90.8743 44.8662   2
  -1   2  12 45.7462 15.7972   1
  -1   2  12 35.0827 37.6125   2
  -1  -2  11 2246.32 118.684   2
  -1   2  11 2260.00 119.936   2
  -1   2  11 2227.41 67.0735   1
  -1   2  10 4.10987 10.3909   1
  -1   2  10 1.44655 29.0344   2
  -1  -2  10-0.23947 30.3446   2
  -1   2   9 640.490 61.1880   2
  -1  -2   9 711.152 63.6208   2
  -1   2   9 765.439 70.6327   4
  -1   2   8 1492.53 89.0016   4
  -1   2   8 1437.71 82.5137   2
  -1  -2   8 1368.87 83.1124   2
  -1   2   7 1175.39 71.6213   2
  -1  -2   7 1314.68 74.8084   2
   1  -2  -7 1110.14 65.2915   2
   1   2  -7 1201.86 68.3886   2
  -1   2   7 1267.12 77.7433   4
  -1   2   6 2585.15 103.473   4
  -1   2   6 2509.40 97.7883   2
  -1  -2   6 2543.22 100.485   2
   1   2  -6 2551.04 97.4350   2
   1  -2  -6 2660.38 95.5644   2
   1  -2  -6 2567.15 99.7224   4
   1   2  -5 1416.93 66.8561   2
   1  -2  -5 1318.70 65.6173   4
  -1  -2   5 1428.60 68.6735   2
  -1   2   5 1279.17 67.5784   4
  -1   2   5 1349.38 66.3517   2
   1  -2  -5 1332.05 62.9006   2
  -1   2   4 4032.75 116.370   4
  -1   2   4 4185.57 115.380   2
   1   2  -4 4128.91 116.073   2
  -1  -2   4 4185.21 118.014   2
   1  -2  -4 4470.48 114.485   2
  -1   2   3 21423.1 362.390   4
  -1   2   3 21198.3 359.936   2
   1  -2  -3 21412.0 363.743   3
   1   2  -3 21478.3 364.770   2
   1  -2  -3 21819.4 358.892   2
  -1   2   2 6699.96 137.311   3
  -1   2   2 6681.17 136.051   2
  -1  -2  -2 4155.79 98.3657   1
   1   2   2 4085.35 96.3344   1
  -1  -2  -3 56980.2 866.247   1
   1   2   3 58218.3 864.688   1
   1   2   4 4971.08 106.077   2
   1   2   4 5029.06 120.885   1
   1  -2   4 5165.35 99.5960   2
  -1   2  -4 4730.28 97.2038   2
  -1   2  -5 5814.66 119.077   2
   1  -2   5 5628.60 121.085   2
   1   2   5 6020.06 141.357   1
   1   2   5 5764.97 136.789   4
   1   2   5 5802.87 126.975   2
   1   2   6 4492.51 116.207   2
   1   2   6 4547.62 126.707   4
   1  -2   6 4456.55 112.061   2
   1   2   6 4671.91 125.007   1
  -1   2  -6 4478.88 107.831   2
   1   2   7 186.609 29.2734   1
  -1  -2  -7 240.598 26.7546   2
   1   2   7 187.491 31.5893   4
  -1   2  -7 163.655 22.2794   2
   1  -2   7 175.667 24.1834   2
   1   2   7 225.801 29.5916   2
  -1   2  -8 1387.94 74.2905   4
   1  -2   8 1164.10 61.4662   2
  -1   2  -8 1353.51 61.1158   2
   1   2   8 1328.54 74.5146   4
   1   2   8 1328.77 67.3531   1
   1   2   8 1310.53 67.4038   2
  -1  -2  -8 1415.67 63.3273   2
  -1  -2  -9 7269.65 175.790   2
   1   2   9 7146.01 200.451   4
   1   2   9 6905.41 187.234   2
   1   2   9 7342.85 184.322   1
  -1   2  -9 7532.36 175.762   2
   1  -2   9 7217.37 183.199   2
   1  -2  10 10359.3 241.580   2
  -1   2 -10 10122.7 227.532   2
   1   2  10 10218.7 258.675   4
   1   2  10 9400.88 230.103   1
   1   2  10 10267.1 245.596   2
   1   2  11 228.261 40.1351   2
   1  -2  11 291.393 40.9058   2
   1   2  11 252.829 36.9265   1
   1   2  12 153.777 39.0086   2
   1   2  12 130.598 31.9582   1
   1  -2  12 108.656 31.4750   2
   1  -2  13 769.119 68.4608   2
   1   2  13 702.771 69.7483   2
   1   2  13 751.904 61.8995   1
   1   2  14 560.956 57.6736   1
   1   2  14 669.104 70.0490   2
   1  -2  14 536.340 62.0815   2
   1   2  15 1948.87 101.278   1
   1  -2  15 1765.15 111.371   2
   1   2  15 1666.06 114.685   2
   1  -2  16 773.569 81.8747   2
   1   2  16 857.624 71.9167   1
   1   2  16 778.661 85.2428   2
   1   2  17 68.3310 37.0829   1
   1  -2  17 52.9412 33.8943   1
   1  -2  17 130.337 49.0774   2
   1   2  17 102.240 44.4356   2
   1   2  18 89.3285 52.0570   2
   1   2  18 111.037 40.7551   1
   1  -2  18 152.854 39.7984   1
   1  -2  18 111.433 53.8382   2
   1   2  19 491.075 76.2145   2
   1  -2  19 547.032 78.9999   2
   1  -2  20 111.480 53.1471   2
   1   2  20 96.1507 56.7383   2
   1   2  21 218.531 70.9031   2
   1  -2  21 354.263 77.6383   2
   1   2  22-94.0704 62.4044   2
   1   2  23 131.149 68.3642   2
  -1   3  26 34.1324 82.2237   2
  -1   3  25 464.397 107.871   2
  -1   3  24 66.7687 69.9272   2
  -1   3  23 570.152 107.787   2
  -1   3  22 52.1731 59.5965   2
  -1   3  21-46.1978 66.8400   2
  -1   3  20 7.90557 55.8909   2
  -1   3  19 2479.45 172.264   2
  -1  -3  19 2790.87 177.543   2
  -1   3  18-5.86739 52.8621   2
  -1  -3  18 99.8657 59.4916   2
  -1  -3  17 3617.82 189.370   2
  -1   3  17 3736.04 198.815   2
  -1   3  16 330.862 66.6799   2
  -1  -3  16 371.920 73.6068   2
  -1   3  15 4206.57 195.584   2
  -1  -3  15 4192.51 191.909   2
  -1  -3  14 468.251 73.5408   2
  -1   3  14 283.024 56.8704   2
  -1  -3  13 1055.58 93.4453   2
  -1   3  13 899.877 84.9143   2
  -1   3  12 2836.60 143.327   2
  -1  -3  12 3047.32 145.153   2
  -1   3  11-20.9373 37.4101   2
  -1  -3  11 100.863 41.7626   2
  -1   3  11 50.5046 41.4647   4
  -1   3  10 1171.51 89.7822   4
  -1  -3  10 1195.85 84.0517   2
  -1   3  10 1196.81 85.6808   2
  -1   3   9 18982.5 411.763   4
  -1   3   9 18843.1 402.287   2
  -1  -3   9 19509.5 401.206   2
  -1   3   8 286.143 45.9163   4
  -1   3   8 290.861 42.0224   2
  -1  -3   8 356.263 46.4598   2
   1  -3  -7 9933.86 178.143   1
  -1   3   7 10148.2 241.939   2
   1   3  -7 10328.2 240.482   2
  -1   3   7 10542.2 250.675   4
  -1  -3   7 10197.9 241.956   2
  -1   3   6 48.4882 24.2910   2
   1  -3  -6 37.8288 10.8637   1
  -1   3   6 21.4204 23.1314   4
   1  -3  -6 0.96969 18.4233   2
   1   3  -6 17.5611 20.3786   2
   1  -3  -5 1418.61 41.4182   1
  -1   3   5 1428.60 71.0742   4
   1   3  -5 1513.83 70.0670   2
   1  -3  -5 1466.93 65.2676   2
  -1   3   5 1497.17 69.1449   2
   1  -3  -4 199.052 27.5071   3
   1   3  -4 189.314 28.3868   2
  -1   3   4 142.403 25.7706   4
  -1   3   4 170.531 26.6659   2
   1  -3  -4 154.037 22.2697   2
  -1   3   3 13965.5 255.057   3
  -1   3   3 13436.5 249.361   2
   1  -3  -3 13601.7 246.150   2
   1  -3  -3 13268.3 253.142   3
   1  -3  -2 138603. 1983.09   3
  -1   3   2 138444. 1982.38   3
  -1   3   2 134747. 1974.58   2
   1  -3  -2 137617. 1971.78   2
  -1   3   1 30148.0 459.697   2
   1   3   2 153375. 2189.83   1
  -1  -3  -2 151327. 2191.18   1
  -1  -3  -3 161.259 23.7528   1
   1   3   3 188.887 25.6607   1
   1   3   4 13259.8 238.158   1
  -1  -3  -4 12764.8 240.327   1
  -1   3  -4 11856.1 208.094   2
   1   3   5 4938.37 129.032   1
  -1  -3  -5 5214.28 132.739   1
   1   3   5 5444.18 122.346   2
  -1   3  -5 5029.53 111.682   2
   1   3   6 10.0345 18.3961   4
  -1   3  -6 25.5821 12.8329   2
   1   3   6 32.1053 18.3625   2
   1   3   6 34.8046 22.6268   1
   1  -3   6 51.9026 18.3149   2
   1   3   7 17280.5 322.245   2
  -1   3  -7 17083.3 308.367   2
   1  -3   7 17709.6 314.446   2
   1   3   7 17263.2 324.339   1
   1   3   7 17005.5 334.612   4
  -1   3  -8 367.349 32.7908   2
   1  -3   8 366.846 37.3173   2
   1   3   8 353.904 38.3765   1
   1   3   8 360.397 41.0246   4
   1   3   8 376.532 37.3796   2
  -1   3  -9 9728.66 215.387   2
   1  -3   9 9434.30 222.765   2
   1   3   9 9925.39 232.886   2
   1   3   9 9937.96 222.816   1
   1   3   9 9901.99 247.368   4
   1  -3  10 944.410 63.0543   2
   1   3  10 1054.56 77.9457   4
  -1   3 -10 942.140 58.6556   2
   1   3  10 940.230 64.0508   1
   1   3  10 1032.57 69.5633   2
   1  -3  11 32.3656 27.4893   2
   1   3  11 37.8988 38.6504   4
   1   3  11 15.2340 26.5192   2
   1   3  11 19.2448 27.1877   1
   1  -3  12 640.009 60.9000   2
   1   3  12 645.589 63.8181   2
   1   3  12 569.028 66.5944   4
   1   3  12 626.565 55.3376   1
   1  -3  13 223.356 47.7235   2
   1   3  13 126.127 38.3270   2
   1   3  13 219.289 42.5436   1
   1  -3  14 105.854 45.8772   2
   1   3  14-10.3402 39.5278   2
   1   3  14 32.6432 28.8863   1
   1   3  15 3771.14 144.701   1
   1  -3  15 3845.97 165.671   2
   1   3  15 4005.01 174.401   2
   1   3  16 163.319 50.5712   2
   1  -3  16 176.330 50.4179   2
   1   3  16 188.093 42.7712   1
   1   3  17 2928.68 129.727   1
   1  -3  17 2880.14 153.708   2
   1   3  17 2707.17 156.140   2
   1   3  18 555.709 77.9055   2
   1   3  18 628.524 63.4658   1
   1  -3  18 692.022 83.5500   2
   1   3  19 467.836 74.4800   2
   1  -3  19 572.677 84.0598   2
   1   3  20 116.341 53.9705   2
   1   3  21 58.2651 56.8395   2
   1   3  22 515.886 89.1895   2
   1   3  23 325.655 75.3115   2
  -1   4  25-88.4204 78.1781   2
  -1   4  24 139.313 74.2872   2
  -1   4  23 144.093 74.6951   2
  -1   4  22 61.7918 66.2693   2
  -1   4  21 1128.30 130.396   2
  -1   4  20 329.877 78.1511   2
  -1   4  19 446.143 85.4172   2
  -1   4  18-28.7490 56.6067   2
  -1   4  17 14.0619 48.9540   2
  -1   4  16-58.4906 57.8814   2
  -1   4  15 2385.65 145.812   2
  -1  -4  14 395.202 71.9162   2
  -1   4  14 136.531 50.2541   2
  -1  -4  13 9092.39 275.700   2
  -1   4  13 8721.81 278.876   2
  -1   4  13 8890.85 288.484   4
  -1  -4  12 631.452 74.9527   2
  -1   4  12 569.734 72.7021   4
  -1   4  12 607.570 70.7435   2
  -1  -4  11 18294.5 406.209   2
  -1   4  11 18082.3 410.851   2
  -1   4  11 17464.3 416.122   4
  -1   4  10 28.2100 33.7616   2
  -1   4  10 73.5146 39.5122   4
  -1   4   9 2153.96 112.092   4
  -1   4   9 1893.64 102.839   2
   1  -4  -8-6.53718 13.0007   1
  -1   4   8-27.7456 27.9157   2
  -1   4   8-14.5553 32.7054   4
  -1   4   7 5849.02 172.193   2
   1  -4  -7 5886.42 123.375   1
   1   4  -7 5908.48 170.483   2
  -1   4   7 5962.78 178.321   4
   1  -4  -6 582.964 30.1493   1
   1   4  -6 545.802 46.4123   2
  -1   4   6 612.984 50.4345   2
  -1   4   6 558.329 50.3711   4
   1  -4  -6 594.963 44.8535   2
   1  -4  -6 602.792 48.9623   3
   1  -4  -5 5278.90 148.185   3
   1  -4  -5 5293.11 137.205   2
  -1   4   5 5300.69 144.158   2
   1   4  -5 5096.52 144.277   2
   1  -4  -4 4071.74 118.289   3
   1  -4  -4 4047.78 110.391   2
  -1   4   4 4110.99 114.928   2
  -1   4   3 21080.9 361.886   2
   1  -4  -3 21478.9 370.306   3
  -1   4   3 20944.0 370.619   3
   1  -4  -3 21496.7 358.053   2
   1  -4  -2 1452.90 58.2609   3
  -1   4   2 1472.83 54.0401   2
   1  -4  -2 1496.86 53.5504   2
  -1   4   2 1548.69 61.2098   3
  -1   4   1 349.669 27.8310   3
  -1   4   1 349.209 24.1258   2
   1  -4  -1 275.129 24.9616   3
  -1   4   0 857.265 40.4849   3
  -1  -4  -1 32488.8 506.732   1
   1   4   1 31633.6 477.626   3
  -1  -4  -1 30319.5 475.920   3
  -1  -4  -2 51647.8 760.023   3
  -1  -4  -2 51145.0 784.054   1
   1   4   3 1272.86 57.8064   1
  -1  -4  -3 1523.45 60.2491   1
  -1  -4  -4 3098.03 95.1394   1
   1   4   4 2978.15 91.1835   1
  -1  -4  -5 1910.37 76.1760   1
   1   4   5 1933.35 74.3210   1
  -1   4  -5 1894.06 61.4083   2
  -1   4  -6 4278.15 109.651   2
   1   4   6 4450.38 124.413   1
   1   4   6 4431.56 117.680   2
  -1  -4  -6 4093.09 122.721   1
   1   4   7 749.739 53.3003   4
  -1   4  -7 755.535 43.3346   2
   1   4   7 807.916 51.2076   2
   1   4   7 788.485 51.3573   1
   1   4   8 129.818 28.0050   1
  -1   4  -8 73.8698 18.4896   2
   1   4   8 115.975 27.9898   4
   1   4   8 96.5662 23.9055   2
   1   4   9 2410.37 109.144   4
   1   4   9 2520.48 98.2828   1
  -1   4  -9 2438.39 91.5918   2
   1   4   9 2406.13 101.563   2
  -1   4 -10-10.8685 18.8275   2
   1   4  10-1.08142 27.7965   4
   1  -4  10 3.33846 23.2674   2
   1   4  10-6.74035 25.4155   2
   1   4  10-14.6640 23.2849   1
   1   4  11 7238.80 212.545   2
   1   4  11 7442.04 196.978   1
   1   4  11 7346.58 226.563   4
   1  -4  11 7404.08 203.044   2
   1   4  12 111.029 32.7296   1
   1   4  12 138.356 40.7633   2
   1  -4  12 143.136 40.0440   2
   1   4  12 63.5051 36.3027   4
   1  -4  13 12084.1 299.791   2
   1   4  13 12257.6 282.412   1
   1   4  13 11485.8 309.067   2
   1   4  13 12156.3 326.799   4
   1   4  14 937.261 72.6591   1
   1  -4  14 992.114 81.9199   2
   1   4  14 862.032 80.2106   2
   1   4  15 2132.84 106.778   1
   1  -4  15 2261.33 126.420   2
   1   4  15 2239.53 132.387   2
   1   4  16 21.5926 29.3479   1
   1   4  16-33.6294 46.8453   2
   1   4  17-14.6647 41.9327   2
   1   4  17-20.0450 35.2649   1
   1   4  18 75.0793 52.2647   2
   1   4  18 91.2285 37.8260   1
   1   4  19 561.028 82.7598   2
   1   4  20 38.2412 49.2378   2
   1   4  21 1077.59 124.875   2
   1   4  22 68.4986 65.2485   2
   1   4  23 266.279 76.0763   2
  -1   5  25 232.114 79.3174   2
  -1   5  24 33.8838 60.2505   2
  -1   5  23-43.8116 74.5336   2
  -1   5  22 49.3507 67.5238   2
  -1   5  21 128.789 65.7539   2
  -1   5  20 86.8591 61.0037   2
  -1   5  19-10.9192 61.2767   2
  -1   5  18-67.5380 66.9145   2
  -1   5  17 586.508 85.7884   2
  -1   5  16-36.0731 53.9656   2
  -1   5  15 144.533 50.8963   2
  -1   5  14 80.7888 46.1216   2
  -1   5  14 71.8126 46.1415   4
  -1   5  13 418.349 66.6148   2
  -1   5  13 361.764 68.4487   4
  -1   5  12 919.360 91.4676   4
  -1   5  12 771.344 79.2618   2
  -1   5  11 397.428 56.3448   2
  -1   5  11 376.112 61.0363   4
  -1   5  10 716.961 72.0053   4
  -1   5  10 601.956 64.6038   2
  -1   5   9 4829.42 168.416   2
  -1   5   9 4788.58 175.384   4
   1  -5  -9 4736.42 118.360   1
  -1   5   8 4.26272 30.6766   4
   1  -5  -8 36.6981 16.0454   1
  -1   5   8 4.18084 26.4346   2
   1   5  -7 5289.46 162.700   2
  -1   5   7 5597.29 172.247   4
   1  -5  -7 5480.47 122.807   1
  -1   5   7 5620.08 167.523   2
   1   5  -6 557.294 48.6677   2
   1  -5  -6 518.585 46.3840   3
  -1   5   6 448.430 46.8779   2
   1  -5  -5 282.854 33.5702   3
  -1   5   5 240.348 30.9582   2
   1  -5  -5 271.457 30.3021   2
  -1   5   4 2588.05 95.9056   3
   1  -5  -4 2667.01 87.1205   2
  -1   5   4 2457.80 88.1330   2
   1  -5  -4 2685.07 94.6930   3
  -1   5   3 21041.5 368.182   2
   1  -5  -3 22169.0 380.602   3
  -1   5   3 21545.3 380.578   3
  -1   5   2 8085.36 164.312   2
   1  -5  -2 8186.85 175.569   3
  -1   5   2 8069.90 176.764   3
   1  -5  -1 12424.9 231.514   3
  -1   5   1 12000.9 230.914   3
  -1   5   0 567.610 37.3246   3
   1   5   0 576.946 25.9474   3
   1   5   1 10901.5 181.712   3
  -1  -5  -1 10094.4 178.719   3
   1   5   2 461.052 27.8290   3
  -1  -5  -2 423.057 25.7306   3
  -1  -5  -2 397.581 32.5188   1
  -1  -5  -3 110.544 18.2331   3
  -1  -5  -3 126.105 25.8589   1
  -1  -5  -4 4617.63 126.115   1
   1   5   5 41.3554 21.0463   1
  -1  -5  -5 49.2835 21.8541   1
  -1   5  -6 191.747 23.0492   2
  -1  -5  -6 187.461 29.0440   1
   1   5   6 233.648 30.8014   1
   1   5   6 282.261 34.6916   2
   1   5   7 12457.7 254.340   1
   1   5   7 12145.8 253.134   2
  -1   5  -7 12230.1 242.185   2
  -1  -5  -7 12073.4 260.687   1
   1   5   8 1722.37 87.8946   4
   1   5   8 1700.34 80.7798   2
  -1   5  -8 1682.49 72.2088   2
   1   5   8 1682.70 77.8119   1
  -1   5  -9 9918.98 221.407   2
   1   5   9 9567.97 224.181   1
   1   5   9 9506.11 247.117   4
   1   5   9 9732.11 235.181   2
   1   5  10 47.6132 33.1869   4
  -1   5 -10 26.6045 18.2558   2
   1   5  10 23.5833 23.4249   1
   1   5  10 31.3235 28.4405   2
   1   5  11 463.103 55.9676   2
   1   5  11 454.993 47.6541   1
   1   5  11 467.967 57.6171   4
   1   5  12 4526.33 168.296   2
   1   5  12 4401.03 177.784   4
   1   5  12 4135.40 144.227   1
   1   5  13-1.54879 37.0904   2
   1   5  13-6.88396 41.8124   4
   1   5  13 53.0235 31.9922   1
   1   5  14 77.9575 48.4403   4
   1   5  14 19.6585 39.8119   2
   1   5  14 49.6401 31.0820   1
   1   5  15 421.566 73.8977   4
   1   5  15 284.435 53.6466   2
   1   5  15 227.194 41.9225   1
   1   5  16 122.468 44.9658   2
   1   5  16 125.059 34.9928   1
   1   5  17-25.2671 49.7428   2
   1   5  17 9.91579 31.6606   1
   1   5  18 74.2336 46.4893   2
   1   5  18 123.199 36.8725   1
   1   5  19 160.682 58.6302   2
   1   5  20 212.303 67.7630   2
   1   5  21 84.9453 57.2262   2
   1   5  22 115.331 61.2405   2
   1   5  23-63.0511 59.4451   2
  -1   6  25 101.896 77.5741   2
  -1   6  24-36.7104 75.1179   2
  -1   6  23 605.443 110.436   2
  -1   6  22 112.479 70.1740   2
  -1   6  21 689.740 104.540   2
  -1   6  20 30.8061 57.2411   2
  -1   6  19 550.808 93.5304   2
  -1   6  18-79.1011 65.0310   2
  -1   6  17-53.9148 58.4270   2
  -1   6  16 19.6429 51.9647   2
  -1   6  16 79.3782 56.1986   4
  -1   6  15 1375.29 116.465   2
  -1   6  15 1250.81 117.571   4
  -1   6  14 977.380 95.6185   2
  -1   6  14 1109.53 106.273   4
  -1   6  13 12060.2 353.867   4
  -1   6  13 12659.9 347.121   2
  -1   6  12 626.406 80.1940   4
  -1   6  12 533.099 71.0170   2
  -1   6  11 21548.4 485.094   4
  -1   6  11 22126.1 475.139   2
  -1   6  10 148.969 42.0546   2
   1  -6 -10 186.465 24.7751   1
  -1   6  10 179.202 45.6575   4
   1  -6  -9 75.5695 19.6724   1
  -1   6   9 35.7688 31.9392   4
  -1   6   9 90.6375 36.4317   2
   1  -6  -8 3064.47 94.5995   1
  -1   6   8 3289.63 131.313   2
  -1   6   8 3406.11 140.512   4
  -1   6   7 12551.1 285.746   2
   1  -6  -7 12506.0 236.771   1
  -1   6   6 3089.57 114.249   2
  -1   6   5 27664.2 491.293   2
   1  -6  -5 28228.5 500.946   3
   1  -6  -5 28469.2 481.172   2
  -1   6   4 9595.75 209.978   2
   1  -6  -4 9996.91 219.151   3
  -1   6   4 9343.41 219.424   3
  -1   6   3 16007.7 306.502   3
   1  -6  -3 15925.5 303.429   3
  -1   6   3 15865.3 291.794   2
  -1   6   2 36.7270 20.0915   3
   1  -6  -2 62.3119 16.7964   3
  -1   6   2 147.705 25.4170   2
   1  -6  -1 8202.44 176.972   3
  -1   6   1 8146.08 179.278   3
   1   6   0 720.445 33.8890   3
  -1   6   0 765.124 47.0484   3
   1   6   1 3804.67 89.8758   3
  -1  -6  -1 3901.40 88.6695   3
  -1  -6  -2 580.081 32.2845   3
   1   6   2 590.999 34.0714   3
  -1  -6  -3 28837.2 482.213   1
  -1  -6  -3 28181.9 460.633   3
  -1  -6  -4 13426.6 256.839   3
  -1  -6  -4 13298.0 266.692   1
  -1  -6  -5 32883.6 543.404   3
  -1  -6  -5 31583.4 542.158   1
  -1  -6  -6 11411.5 245.030   1
  -1   6  -6 11065.5 221.204   2
   1   6   7 2953.15 106.943   1
  -1  -6  -7 3234.85 112.027   1
   1   6   7 3155.82 109.082   2
  -1   6  -7 3186.98 101.955   2
   1   6   8 585.898 50.8765   1
  -1  -6  -8 693.598 53.5507   1
  -1   6  -8 661.895 46.4813   2
   1   6   8 733.515 55.6059   2
   1   6   9-21.5552 28.6392   2
   1   6   9 11.2544 28.4200   4
  -1   6  -9 14.2689 18.1272   2
   1   6   9 28.5629 22.5299   1
   1   6  10-26.7320 32.2669   2
  -1   6 -10 10.7915 18.0510   2
   1   6  10 28.3620 24.9559   1
   1   6  10 9.70393 31.3185   4
   1   6  11 15642.5 357.581   2
   1   6  11 16038.3 332.615   1
   1   6  11 16344.4 377.670   4
   1   6  12 372.022 46.8112   1
   1   6  12 315.098 53.4411   2
   1   6  12 414.764 60.1154   4
   1   6  13 10175.5 255.368   1
   1   6  13 10634.9 306.318   4
   1   6  13 10362.2 289.981   2
   1   6  14 142.912 51.4292   4
   1   6  14 300.069 46.5232   1
   1   6  14 267.172 52.9211   2
   1   6  15 4598.82 159.223   1
   1   6  15 4330.86 202.005   4
   1   6  15 4351.33 190.744   2
   1   6  16 342.664 70.0447   4
   1   6  16 373.260 64.4152   2
   1   6  17-33.7316 51.1197   2
   1   6  18 648.411 90.8092   2
   1   6  19 1496.19 130.536   2
   1   6  20 53.1267 53.4274   2
   1   6  21 1080.10 119.533   2
   1   6  22-59.3317 62.8122   2
   1   6  23 173.126 63.8808   2
   1   6  24-5.42394 61.8762   2
  -1   7  25 50.7647 78.3718   2
  -1   7  24 98.4808 79.8489   2
  -1   7  23-44.7017 63.9828   2
  -1   7  22 117.620 69.2196   2
  -1   7  21 340.557 84.1642   2
  -1   7  20 232.787 75.9538   2
  -1   7  19-22.2032 67.2388   2
  -1   7  18-80.9923 60.9820   2
  -1   7  17-133.572 75.5039   4
  -1   7  17-1.86103 56.3500   2
  -1   7  16 64.7264 55.4868   4
  -1   7  16-48.6247 57.8613   2
  -1   7  15 16.1757 48.9358   2
  -1   7  15 36.3684 51.8892   4
  -1   7  14 32.2008 47.0591   2
  -1   7  14 4.50054 47.5948   4
  -1   7  13-18.5106 44.9434   2
  -1   7  13-2.94717 48.9027   4
  -1   7  12 203.255 58.4646   4
  -1   7  12 201.911 54.8276   2
  -1   7  11 7.70183 38.4981   2
   1  -7 -11-10.5314 20.2011   1
  -1   7  11-9.05511 39.1165   4
  -1   7  10 987.498 85.2452   4
   1  -7 -10 957.411 55.5797   1
  -1   7  10 1091.61 86.8178   2
  -1   7   9 21.9866 34.6751   4
  -1   7   9 43.1712 35.4469   2
   1  -7  -9 18.7727 18.4154   1
   1  -7  -8 4830.95 127.705   1
  -1   7   8 4882.07 165.789   2
  -1   7   7 3088.13 122.521   2
  -1   7   6 2013.22 92.2290   2
  -1   7   5 30.2994 25.0378   2
  -1   7   5 27.5847 26.5930   3
  -1   7   4 583.043 49.3363   3
  -1   7   4 624.057 48.9342   2
   1  -7  -4 607.049 46.9517   3
  -1   7   3 2935.56 105.922   3
   1  -7  -3 3085.82 104.530   3
  -1   7   3 3158.90 98.6639   2
  -1   7   2 14.1293 23.8214   3
   1  -7  -2 53.8276 20.3404   3
  -1   7   1 4120.30 118.955   3
   1  -7  -1 4155.35 116.792   3
   1   7   0 1242.09 48.7597   3
  -1   7   0 1235.25 60.5087   3
  -1  -7  -1 8564.69 167.059   3
   1   7   1 8871.41 171.813   3
  -1  -7  -2 5353.58 123.468   3
   1   7   2 5431.81 125.419   3
  -1  -7  -3 4480.26 116.277   3
  -1  -7  -3 4784.14 133.177   1
   1   7   3 4587.22 118.747   3
  -1  -7  -4 203.892 30.7196   1
  -1  -7  -4 256.480 28.0483   3
  -1  -7  -5 6623.38 170.616   1
  -1  -7  -5 6669.85 167.107   3
  -1  -7  -6 1584.26 76.7202   3
  -1  -7  -6 1599.18 78.3246   1
  -1  -7  -7 918.224 60.7067   1
  -1   7  -7 952.292 54.4136   2
   1   7   7 955.948 62.3276   2
  -1   7  -8 0.01839 16.9394   2
   1   7   8 65.5345 30.6991   2
   1   7   9 1310.00 79.5817   2
  -1   7  -9 1265.93 69.0498   2
   1   7  10 854.917 68.4191   2
  -1   7 -10 818.141 58.6741   2
   1   7  10 752.344 69.6465   4
   1   7  11-61.8084 39.1474   2
   1   7  11-11.2975 37.6695   4
   1   7  12 1043.33 85.8262   2
   1   7  12 812.978 81.5413   4
   1   7  13 22.2724 35.5287   2
   1   7  13-30.5421 46.4642   4
   1   7  14 410.690 72.3012   4
   1   7  14 308.847 60.5573   2
   1   7  15 1371.28 116.377   4
   1   7  15 1272.67 104.937   2
   1   7  16 216.053 60.1678   4
   1   7  16 199.557 55.9190   2
   1   7  17 278.719 62.8268   2
   1   7  17 418.936 75.3760   4
   1   7  18 219.942 61.2601   2
   1   7  19 169.496 60.1079   2
   1   7  20 316.863 73.8549   2
   1   7  21-31.9801 58.9953   2
   1   7  22-14.9355 58.9048   2
   1   7  23-66.0255 63.9585   2
   1   7  24-29.3294 59.5913   2
  -1   8  24-74.2914 72.5794   2
  -1   8  23 385.573 92.3057   2
  -1   8  22 161.229 76.1481   2
  -1   8  21 2423.17 189.189   2
  -1   8  20 293.841 86.8499   2
  -1   8  19 2813.78 189.470   2
  -1   8  18 135.151 72.9257   4
  -1   8  18-46.4202 67.7773   2
  -1   8  17 109.222 59.6771   2
  -1   8  17 4.87317 58.0079   4
  -1   8  16 616.238 90.5741   4
  -1   8  16 664.307 91.6161   2
  -1   8  15 1833.07 135.712   2
  -1   8  15 1794.55 139.308   4
  -1   8  14-21.1009 48.9157   2
  -1   8  14 20.4190 49.5033   4
  -1   8  13 11164.0 330.269   2
  -1   8  13 11280.8 340.942   4
   1  -8 -12 599.450 48.0838   1
  -1   8  12 604.460 77.8704   4
  -1   8  12 575.773 74.5863   2
  -1   8  11 6556.81 231.304   4
   1  -8 -11 6121.83 166.070   1
  -1   8  11 6522.63 224.773   2
  -1   8  10 19.0352 36.0674   2
  -1   8  10-7.56505 39.3068   4
   1  -8 -10 23.4481 22.1927   1
  -1   8   9 1047.56 84.5886   4
   1  -8  -9 816.906 54.5928   1
  -1   8   9 1015.41 79.3867   2
  -1   8   8 322.165 44.7379   2
   1  -8  -8 399.519 36.0438   1
  -1   8   7 14153.8 316.767   2
  -1   8   6 2376.20 103.407   2
  -1   8   5 9373.90 220.749   2
  -1   8   5 9489.63 236.137   3
  -1   8   4 1076.84 61.7328   2
   1  -8  -4 982.922 60.7593   3
  -1   8   4 1036.15 66.6179   3
   1  -8  -3 10652.7 236.653   3
  -1   8   3 10592.0 240.779   3
  -1   8   2 2034.52 86.2100   3
   1  -8  -2 2150.49 85.0012   3
  -1   8   1 12189.4 255.169   3
   1  -8  -1 12279.5 249.489   3
  -1   8   0 1052.19 60.9961   3
   1   8   0 1069.70 48.6296   3
   1   8   1 187.344 21.8670   3
   1   8   2 3575.31 101.194   3
  -1  -8  -2 3527.32 97.8205   3
  -1  -8  -3 7742.71 172.560   3
   1   8   3 7918.95 176.525   3
  -1  -8  -4 4348.50 123.575   3
  -1  -8  -4 4590.26 136.200   1
  -1  -8  -5 24902.1 438.637   3
  -1  -8  -5 24094.4 449.481   1
  -1  -8  -6 29053.8 516.023   3
   1   8   7 17875.9 350.652   2
   1   8   8 90.8202 32.3908   2
  -1   8  -8 80.8255 24.7865   2
  -1   8  -9 1435.75 75.7845   2
   1   8   9 1431.63 83.7002   2
   1   8  10 149.569 38.7018   2
   1   8  10 187.866 46.4251   4
   1   8  11 13210.1 340.032   4
   1   8  11 13712.0 329.136   2
   1   8  12 115.531 49.3813   4
   1   8  12-38.4682 40.6979   2
   1   8  13 9056.19 273.070   2
   1   8  13 8913.52 283.962   4
   1   8  14-2.74415 37.6090   2
   1   8  14 20.8715 41.7272   4
   1   8  15 1518.68 120.473   4
   1   8  15 1457.07 113.355   2
   1   8  16 208.324 59.0455   4
   1   8  16 324.406 65.3199   2
   1   8  17 355.746 70.3345   4
   1   8  17 501.575 78.0731   2
   1   8  18 364.056 79.6902   4
   1   8  18 150.158 60.0983   2
   1   8  19 1954.78 148.739   2
   1   8  20 309.156 74.2817   2
   1   8  21 527.642 93.2798   2
   1   8  22 3.32483 60.0986   2
   1   8  23 170.114 71.1414   2
   1   8  24 22.3276 64.9938   2
  -1   9  24-3.41682 75.9398   2
  -1   9  23-22.2777 73.1544   2
  -1   9  22 153.266 81.6203   2
  -1   9  21 105.207 71.8702   2
  -1   9  20 128.993 72.9115   2
  -1   9  19 268.626 78.2770   4
  -1   9  19 62.1539 59.6404   2
  -1   9  18 15.4039 64.0851   4
  -1   9  18-77.0272 65.4279   2
  -1   9  17 2506.61 174.089   4
  -1   9  17 2309.27 163.296   2
  -1   9  16 81.8819 59.6046   4
  -1   9  16 31.2753 51.4053   2
  -1   9  15 3929.69 204.330   4
  -1   9  15 3824.46 198.606   2
  -1   9  14 226.964 61.8025   2
  -1   9  14 174.999 65.3596   4
  -1   9  13 207.322 62.4733   4
   1  -9 -13 64.6241 25.6132   1
  -1   9  13 199.823 54.4264   2
  -1   9  12 117.848 51.5698   4
   1  -9 -12 60.6693 24.1382   1
  -1   9  12 143.714 56.2585   2
  -1   9  11 2538.42 142.132   4
  -1   9  11 2478.79 136.865   2
   1  -9 -11 2537.91 101.962   1
  -1   9  10 3360.57 157.458   4
   1  -9 -10 3320.92 117.308   1
  -1   9  10 3320.43 152.620   2
  -1   9   9 19936.8 429.829   2
   1  -9  -9 19657.3 372.751   1
   1  -9  -8 1355.66 68.1277   1
  -1   9   8 1149.91 82.0669   2
  -1   9   7 5958.23 183.486   2
  -1   9   6 655.413 64.0780   3
  -1   9   6 631.023 57.1172   2
  -1   9   5 2949.56 121.255   3
  -1   9   5 2837.87 111.644   2
  -1   9   4 330.473 41.2395   2
  -1   9   4 277.902 40.9146   3
  -1   9   3 5563.55 162.747   3
   1  -9  -2 336.686 35.5875   3
  -1   9   2 370.152 41.6052   3
  -1   9   1 2244.96 92.7568   3
   1   9   0 328.858 30.9506   3
  -1   9   0 265.211 35.7688   3
   1   9   1 899.167 49.1759   3
   1   9   2 521.683 39.2063   3
  -1  -9  -2 553.415 37.1305   3
   1   9   3 4214.83 123.262   3
  -1  -9  -3 4411.69 121.099   3
   1   9   4 8154.78 195.565   3
  -1  -9  -4 8322.55 192.140   3
  -1  -9  -5 3095.48 108.663   3
   1   9   8 2679.71 112.871   2
  -1   9  -8 2686.54 104.006   2
  -1   9  -9 4299.04 143.984   2
   1   9   9 4515.16 154.604   2
   1   9  10 3263.79 137.251   2
   1   9  11 3662.05 152.718   2
   1   9  11 3772.71 163.575   4
   1   9  12 1053.28 94.6918   4
   1   9  12 1061.78 86.5313   2
   1   9  13 1595.08 116.028   4
   1   9  13 1585.29 109.066   2
   1   9  14 95.1417 50.0302   2
   1   9  14 36.4462 45.3479   4
   1   9  15 2058.03 134.152   2
   1   9  15 1904.34 134.172   4
   1   9  16 112.974 55.7255   4
   1   9  16 128.895 58.6469   2
   1   9  17 1201.64 112.192   2
   1   9  17 1111.35 114.124   4
   1   9  18 147.363 61.9575   4
   1   9  18 104.990 54.6829   2
   1   9  19 2289.55 171.073   4
   1   9  19 2023.04 152.674   2
   1   9  20-94.7922 68.7840   2
   1   9  21 32.7792 60.4924   2
   1   9  22 1.98753 55.1011   2
   1   9  23 87.9859 65.9346   2
   1   9  24 25.9500 66.1242   2
  -1  10  24 138.059 73.8959   2
  -1  10  23 132.503 73.3757   2
  -1  10  22 84.2048 67.9279   2
  -1  10  21 755.503 112.053   2
  -1  10  20 52.9978 60.1024   2
  -1  10  19 953.094 123.132   4
  -1  10  19 1048.08 125.071   2
  -1  10  18 355.818 78.8692   2
  -1  10  18 226.246 72.3014   4
  -1  10  17 73.1576 65.8094   4
  -1  10  17 23.5886 54.0006   2
  -1  10  16 766.620 96.6988   2
  -1  10  16 769.734 103.537   4
  -1  10  15 1181.42 118.896   4
  -1  10  15 1063.04 107.855   2
  -1  10  14 50.2009 48.1590   4
  -1  10  14 10.9281 47.1979   2
  -1  10  13 2674.36 158.122   4
  -1  10  13 2563.04 151.185   2
  -1  10  12 1968.61 134.487   4
  -1  10  12 2007.24 128.455   2
  -1  10  11 11858.6 334.498   4
  -1  10  11 11446.9 322.672   2
  -1  10  10-135.479 59.9702   2
  -1  10   9 2342.72 120.611   2
  -1  10   8 1203.17 84.9734   2
  -1  10   7 14274.5 325.849   2
  -1  10   6 5698.43 174.660   2
  -1  10   6 5464.37 184.854   3
  -1  10   5 42098.4 719.893   2
  -1  10   5 43564.5 745.336   3
  -1  10   4 3438.74 132.502   3
  -1  10   4 3368.67 118.444   2
  -1  10   3 15823.4 335.506   3
  -1  10   2 989.203 64.8673   3
  -1  10   1 26.5429 26.1092   3
  -1  10   0 2656.26 104.641   3
   1  10   0 2572.22 89.4787   3
   1  10   1 3612.91 110.252   3
   1  10   2 3584.08 112.641   3
  -1 -10  -2 3638.68 108.132   3
  -1 -10  -3 15704.6 296.240   3
   1  10   3 14702.9 298.516   3
  -1 -10  -4 11948.5 256.599   3
   1  10   4 12483.4 264.617   3
  -1 -10  -5 29577.5 521.577   3
   1  10   8 57.6734 39.0665   2
   1  10   9 2307.50 112.425   2
   1  10  10 769.827 69.8457   2
   1  10  11 9222.42 261.128   2
   1  10  12 85.6740 41.5693   2
   1  10  12 23.9904 43.1737   4
   1  10  13 4841.41 206.883   4
   1  10  13 5010.01 199.398   2
   1  10  14 383.092 64.5374   2
   1  10  14 411.699 71.1842   4
   1  10  15 1029.27 99.1817   2
   1  10  15 848.584 98.3807   4
   1  10  16-16.9565 47.8717   4
   1  10  16 92.7970 55.8396   2
   1  10  17 450.685 77.2586   2
   1  10  17 427.355 81.2852   4
   1  10  18 380.224 80.6886   4
   1  10  18 413.796 79.2110   2
   1  10  19 511.181 88.1896   2
   1  10  19 549.478 101.200   4
   1  10  20 110.056 63.0657   2
   1  10  21 387.453 84.9138   2
   1  10  22-4.83171 60.5715   2
   1  10  23 299.950 86.5839   2
   1  10  24-43.3241 67.6286   2
  -1  11  23 679.529 120.695   2
  -1  11  22-36.7145 72.4991   2
  -1  11  21-109.879 76.7812   2
  -1  11  20-29.9804 66.5782   4
  -1  11  20 12.4991 67.5435   2
  -1  11  19 341.268 83.6156   2
  -1  11  19 488.808 98.9776   4
  -1  11  18 201.037 71.2979   2
  -1  11  18 201.962 75.5043   4
  -1  11  17 401.988 88.0164   4
  -1  11  17 445.027 88.3969   2
  -1  11  16 762.861 100.675   2
  -1  11  16 943.169 111.167   4
  -1  11  15 3246.68 184.409   2
  -1  11  15 3367.60 194.847   4
  -1  11  14 285.769 71.2332   2
  -1  11  14 223.491 64.6605   4
  -1  11  13 512.457 80.0465   2
  -1  11  13 708.582 91.8503   4
  -1  11  12 69.7826 46.8395   2
  -1  11  12-79.1353 61.5584   4
  -1  11  11 3252.37 159.391   2
  -1  11  11 3324.82 168.927   4
  -1  11  10 431.082 59.7552   2
  -1  11   9 9763.37 275.900   2
  -1  11   8 11780.7 300.320   2
  -1  11   7 23232.1 465.662   2
  -1  11   6 498.282 56.8360   2
  -1  11   6 469.253 61.0064   3
  -1  11   5-42.8577 33.1609   3
  -1  11   5 35.4218 31.0730   2
  -1  11   4 107.142 34.5929   3
  -1  11   3 6234.03 186.483   3
  -1  11   2 133.700 32.5916   3
  -1  11   1 12551.6 283.640   3
   1  11   0 47.2473 22.6204   3
  -1  11   0 5.73015 26.6266   3
  -1  11  -1 15555.1 318.418   3
   1  11   1 14995.8 298.057   3
  -1 -11  -2 14.7238 16.2656   3
   1  11   2-18.6088 23.0960   3
   1  11   3 8735.86 206.354   3
  -1 -11  -3 8342.02 198.848   3
   1  11   4-11.7886 23.6546   3
  -1 -11  -4-18.1624 19.5874   3
   1  11   5 4492.51 146.742   3
   1  11   8 1149.30 79.1296   2
   1  11   9 20934.5 433.937   2
   1  11  10 1242.04 88.5279   2
   1  11  11 2932.64 140.209   2
   1  11  12-24.0929 45.6540   4
   1  11  12 11.6941 35.3925   2
   1  11  13-35.8678 51.2342   4
   1  11  13-19.6817 45.9311   2
   1  11  14 736.349 87.8913   4
   1  11  14 677.141 80.9523   2
   1  11  15 2364.15 149.712   2
   1  11  15 2240.85 152.132   4
   1  11  16 1110.18 114.409   4
   1  11  16 1238.18 115.568   2
   1  11  17 1649.12 144.536   4
   1  11  17 1948.85 145.790   2
   1  11  18 64.5480 49.3472   2
   1  11  18 48.2370 57.6709   4
   1  11  19-53.3646 60.8343   2
   1  11  19 12.5415 55.8770   4
   1  11  20 151.148 70.4784   4
   1  11  20 119.454 63.1484   2
   1  11  21-6.97936 58.8979   2
   1  11  22-12.5626 59.6912   2
   1  11  23 136.823 67.1240   2
   1  11  24-17.4022 66.6221   2
  -1  12  23-168.047 80.6807   2
  -1  12  22 35.1162 75.9213   2
  -1  12  21 167.147 77.0990   2
  -1  12  21 133.034 78.9297   4
  -1  12  20-35.1343 67.2650   2
  -1  12  20-23.4013 57.1044   4
  -1  12  19 742.230 114.638   4
  -1  12  19 769.334 114.548   2
  -1  12  18 0.94080 63.8381   4
  -1  12  18-45.4422 60.4801   2
  -1  12  17 1612.02 150.768   4
  -1  12  17 1328.87 132.721   2
  -1  12  16 183.978 67.5231   2
  -1  12  16 259.548 79.9972   4
  -1  12  15 379.942 81.5256   4
  -1  12  15 451.796 84.9224   2
  -1  12  14 1040.50 110.227   4
  -1  12  14 1186.33 112.829   2
  -1  12  13 998.113 99.6819   2
  -1  12  13 1164.54 111.647   4
  -1  12  12-4.57292 54.4412   4
  -1  12  12 62.2815 47.5771   2
  -1  12  11 999.795 91.4859   2
  -1  12  10 17.5712 39.8597   2
  -1  12   9-42.5939 44.3470   2
  -1  12   8 1221.24 89.5173   2
  -1  12   7 3890.07 151.408   2
  -1  12   7 3607.84 158.824   3
  -1  12   6 512.572 58.2189   2
  -1  12   6 521.071 61.6592   3
  -1  12   5 1727.51 92.9765   2
  -1  12   5 1720.23 100.265   3
  -1  12   4 1646.65 96.5208   3
  -1  12   3 1387.74 86.4179   3
  -1  12   2 486.977 52.4658   3
   1  12  -1 3942.39 123.184   3
  -1  12   1 3995.82 141.845   3
   1  12   0 784.233 55.1355   3
  -1  12   0 853.334 64.9230   3
  -1  12  -1 595.187 56.5698   3
   1  12   1 578.553 47.5099   3
   1  12   2 183.496 33.1861   3
   1  12   3 4308.94 137.907   3
  -1 -12  -3 4205.10 130.901   3
   1  12   4 2909.96 113.633   3
   1  12   5 4049.21 141.905   3
   1  12   9 160.785 48.9372   2
   1  12  10 1669.42 103.826   2
   1  12  11-10.1923 39.0891   2
   1  12  12 411.293 65.6622   2
   1  12  13 2839.73 159.158   4
   1  12  13 3018.62 155.160   2
   1  12  14 20.8237 44.6002   4
   1  12  14-17.0939 52.8513   2
   1  12  15 146.596 62.4478   2
   1  12  15 43.6137 48.2176   4
   1  12  16 229.802 71.2426   2
   1  12  16 151.402 64.4841   4
   1  12  17 31.1881 53.5483   2
   1  12  17 120.113 61.1731   4
   1  12  18 78.4741 65.3802   4
   1  12  18-19.1648 55.8731   2
   1  12  19 114.862 67.8733   4
   1  12  19 81.7245 56.0797   2
   1  12  20 210.562 83.2551   4
   1  12  20 155.764 72.3750   2
   1  12  21 412.929 97.1013   4
   1  12  21 402.879 90.5935   2
   1  12  22 50.5598 60.2965   2
   1  12  23 93.5072 72.7865   2
   1  12  24 74.4915 61.0899   2
  -1  13  22-39.1700 71.6571   2
  -1  13  21-24.3243 59.5136   2
  -1  13  21 54.5156 69.1990   4
  -1  13  20-54.1897 69.6239   2
  -1  13  20 192.930 87.1757   4
  -1  13  19 381.413 82.2400   2
  -1  13  19 463.696 97.3100   4
  -1  13  18 303.245 82.6112   2
  -1  13  18 233.368 75.7226   4
  -1  13  17 3458.45 209.531   2
  -1  13  17 3542.32 216.420   4
  -1  13  16 509.158 93.6172   4
  -1  13  16 399.656 85.0622   2
  -1  13  15 1588.90 136.436   2
  -1  13  15 1679.80 144.498   4
  -1  13  14 204.749 62.4442   2
  -1  13  14 90.3258 54.5859   4
  -1  13  13 456.419 80.6543   2
  -1  13  13 399.927 73.4712   4
  -1  13  12 29.8737 47.6815   2
  -1  13  11 5670.71 221.375   2
  -1  13  10-39.0229 41.8513   2
  -1  13   9 25688.8 537.570   2
  -1  13   8 1374.03 95.5348   2
  -1  13   7 20306.5 453.865   3
  -1  13   7 20094.0 430.358   2
  -1  13   6 8444.27 236.845   2
  -1  13   6 8446.77 252.087   3
  -1  13   5 729.321 65.5725   2
  -1  13   5 709.132 65.6851   3
  -1  13   4 2296.09 116.909   3
  -1  13   3 436.143 53.2038   3
  -1  13   2 12069.7 293.665   3
   1  13  -1 9745.52 227.019   3
  -1  13   1 9541.62 248.223   3
   1  13   0 20.2447 24.5206   3
  -1  13   0-8.67060 29.4369   3
   1  13   1 21901.9 423.253   3
  -1  13  -1 23256.1 446.673   3
   1  13   2 1064.39 67.0730   3
   1  13   3 50.2931 27.7813   3
   1  13   4 2492.13 107.991   3
   1  13   5 9858.96 251.359   3
   1  13   9 14394.9 343.387   2
   1  13  10 261.358 57.6688   2
   1  13  11 5645.86 207.943   2
   1  13  12 1728.26 115.694   2
   1  13  13 181.060 53.9025   2
   1  13  14 562.179 82.8701   4
   1  13  14 395.414 66.8971   2
   1  13  15 1663.75 135.599   4
   1  13  15 1419.48 119.662   2
   1  13  16 696.695 97.9337   4
   1  13  16 601.548 91.3333   2
   1  13  17 5561.01 254.083   2
   1  13  17 5316.85 256.195   4
   1  13  18 246.786 75.4932   2
   1  13  18 201.101 72.3101   4
   1  13  19 1852.35 160.186   4
   1  13  19 1673.80 148.645   2
   1  13  20 129.002 65.3360   4
   1  13  20 11.3557 57.2804   2
   1  13  21 94.8297 65.5743   2
   1  13  21 218.244 81.2712   4
   1  13  22-7.29239 61.7653   2
   1  13  22 83.8122 71.6186   4
   1  13  23 271.810 86.5958   2
  -1  14  22-4.18219 74.9576   2
  -1  14  22 108.122 86.2236   4
  -1  14  21 81.1209 78.1513   4
  -1  14  21 50.4881 64.2365   2
  -1  14  20 23.2397 70.0667   2
  -1  14  20 13.0212 78.3914   4
  -1  14  19 40.7818 64.4624   2
  -1  14  19 131.474 75.6903   4
  -1  14  18 34.8680 63.7321   2
  -1  14  18-12.1918 69.5188   4
  -1  14  17 197.835 75.5984   2
  -1  14  17 61.6678 56.7741   4
  -1  14  16 128.250 71.4801   2
  -1  14  16-48.5937 64.8508   4
  -1  14  15 738.803 97.9960   2
  -1  14  15 901.921 109.700   4
  -1  14  14 250.605 69.0999   4
  -1  14  14 242.150 68.8998   2
  -1  14  13-36.7492 46.2352   2
  -1  14  13 19.4769 51.8467   4
  -1  14  12 1794.76 128.864   2
  -1  14  11 163.614 52.5528   2
  -1  14  10 1312.89 104.694   2
  -1  14   9 187.943 51.1130   2
  -1  14   8 1802.34 113.349   2
  -1  14   7 880.366 78.6857   2
  -1  14   7 898.485 86.4293   3
  -1  14   6 53.6757 36.0790   3
  -1  14   6 32.2834 35.8396   2
  -1  14   5 24.1452 32.0360   3
  -1  14   4 234.571 47.3775   3
  -1  14   3 408.743 52.8261   3
  -1  14   2 865.933 73.3277   3
   1  14  -1 57.1026 29.3374   3
  -1  14   1 47.5292 32.4086   3
  -1  14   0 6570.31 200.156   3
   1  14   0 6355.68 181.421   3
  -1  14  -1 963.614 76.1911   3
   1  14   1 968.605 69.2364   3
   1  14   2 1276.59 75.8048   3
   1  14   3-13.9753 26.0193   3
   1  14   4 129.018 33.1849   3
   1  14   5 2709.59 121.920   3
   1  14   9 227.706 56.9505   2
   1  14  10 660.241 77.4056   2
   1  14  11 47.4618 43.9041   2
   1  14  12 233.088 59.4175   2
   1  14  13 171.903 53.9412   2
   1  14  14 2.71519 50.1019   4
   1  14  14-72.2607 59.9687   2
   1  14  15 52.1213 52.2845   4
   1  14  15 10.3628 51.8531   2
   1  14  16 17.8383 50.2923   2
   1  14  16 88.4210 59.0351   4
   1  14  17 197.176 76.3694   4
   1  14  17 171.154 71.1569   2
   1  14  18 838.785 118.004   4
   1  14  18 670.492 101.907   2
   1  14  19 102.527 68.8620   2
   1  14  19 106.177 66.8299   4
   1  14  20-13.0147 53.5404   2
   1  14  20-12.7384 67.2852   4
   1  14  21-34.5150 61.9814   4
   1  14  21-12.5132 64.8211   2
   1  14  22 20.5002 61.1566   2
   1  14  22-10.1888 69.7679   4
   1  14  23-38.0253 64.9715   2
  -1  15  22-57.8639 75.2698   2
  -1  15  21 70.6334 77.8406   2
  -1  15  21 73.5432 84.6126   4
  -1  15  20 82.7603 67.0549   4
  -1  15  20 37.7404 67.1433   2
  -1  15  19 1107.49 142.563   4
  -1  15  19 1101.09 136.235   2
  -1  15  18 49.3665 69.3920   2
  -1  15  18 65.5295 63.3596   4
  -1  15  17 1920.80 160.073   2
  -1  15  17 1863.90 163.824   4
  -1  15  16 109.148 62.4365   2
  -1  15  16 84.9479 64.6826   4
  -1  15  15 1167.21 123.638   2
  -1  15  15 1032.37 121.308   4
  -1  15  14 53.0839 57.0013   4
  -1  15  14 155.610 64.5283   2
  -1  15  13-61.6121 51.0713   2
  -1  15  12-84.3714 59.6594   2
  -1  15  11 2629.76 151.947   2
  -1  15  10 448.639 73.4914   2
  -1  15   9 13127.5 349.450   2
  -1  15   8 4331.23 177.099   2
  -1  15   7 8894.57 275.873   3
  -1  15   7 8701.05 256.540   2
  -1  15   6 3220.63 141.266   2
  -1  15   6 3201.30 154.302   3
  -1  15   5 6563.72 221.202   3
  -1  15   4 396.860 56.1525   3
  -1  15   3 2867.28 133.915   3
  -1  15   2 2431.74 123.041   3
  -1  15   1 17653.5 391.384   3
   1  15  -1 17576.6 362.709   3
  -1  15   0 5091.81 179.674   3
   1  15   0 5178.65 165.314   3
  -1  15  -1 9172.21 249.711   3
   1  15   1 9014.85 235.187   3
   1  15   2 1134.23 74.5355   3
  -1  15  -2 1239.62 86.7859   3
   1  15   3 2318.53 111.787   3
   1  15   4 477.696 53.2232   3
   1  15   5 4760.16 171.424   3
   1  15   6 26.1175 32.8131   3
   1  15   9 10853.7 298.450   2
   1  15  10 775.406 82.2098   2
   1  15  11 1920.69 123.142   2
   1  15  12 19.1053 44.7373   2
   1  15  13 113.557 54.6472   2
   1  15  14 676.429 92.2201   4
   1  15  14 617.485 84.0832   2
   1  15  15 1605.12 138.821   4
   1  15  15 1409.33 120.843   2
   1  15  16 990.292 114.409   4
   1  15  16 1297.15 125.208   2
   1  15  17 2324.91 167.514   2
   1  15  17 2049.81 163.995   4
   1  15  18 917.922 113.568   2
   1  15  18 812.901 111.845   4
   1  15  19-104.390 68.6647   2
   1  15  19 44.2048 68.6029   4
   1  15  20 65.4973 62.3755   2
   1  15  20 156.471 72.4728   4
   1  15  21-53.0560 70.4124   2
   1  15  21-39.9950 71.8401   4
   1  15  22 141.882 75.2426   4
   1  15  22-46.0667 70.9394   2
  -1  16  21 112.097 72.3577   4
  -1  16  21 232.703 91.8870   2
  -1  16  20 6.67658 68.8896   4
  -1  16  20 22.5542 68.9225   2
  -1  16  19 102.021 68.9965   2
  -1  16  19 309.040 92.6145   4
  -1  16  18 189.671 82.2600   2
  -1  16  18 83.3378 65.5945   4
  -1  16  17 67.2754 64.2976   2
  -1  16  17-9.94112 66.3250   4
  -1  16  16 9.34827 57.9006   4
  -1  16  16-24.3017 53.3572   2
  -1  16  15 284.873 78.5749   2
  -1  16  15 57.5724 54.1649   4
  -1  16  14 110.766 67.1303   4
  -1  16  14 265.539 74.7947   2
  -1  16  13 1090.41 109.014   2
  -1  16  12 621.044 84.7334   2
  -1  16  11 73.7596 46.1887   2
  -1  16  10 87.8453 51.3674   2
  -1  16   9 548.777 71.3563   2
  -1  16   8 235.213 63.5691   3
  -1  16   8 303.413 60.7031   2
  -1  16   7 466.029 68.5868   2
  -1  16   7 454.133 70.6635   3
  -1  16   6 917.236 87.1827   3
  -1  16   6 987.123 85.5213   2
  -1  16   5 3604.70 163.624   3
  -1  16   4 1503.61 104.126   3
  -1  16   3 3838.78 162.309   3
   1  16  -2 57.0882 33.4565   3
  -1  16   2-106.214 47.5619   3
   1  16  -1 3620.36 138.372   3
  -1  16   1 3623.27 154.072   3
  -1  16   0 4476.65 172.968   3
   1  16   0 4649.37 160.624   3
   1  16   1 206.982 39.3601   3
  -1  16  -1 196.249 43.8736   3
  -1  16  -2 159.577 43.9745   3
   1  16   2 79.1639 27.8935   3
   1  16   3 17218.9 379.318   3
   1  16   4 813.409 71.0477   3
   1  16   5 4499.31 170.076   3
   1  16   6 1306.43 93.7760   3
   1  16   9 790.823 85.1134   2
   1  16  10 1743.55 117.422   2
   1  16  11 19.1244 47.4632   2
   1  16  12 90.3472 54.8887   2
   1  16  13 756.668 89.6343   2
   1  16  14 38.1255 49.4712   2
   1  16  15 62.9830 48.3802   4
   1  16  15 0.11155 49.3130   2
   1  16  16 598.573 93.5855   4
   1  16  16 424.601 78.2313   2
   1  16  17 167.368 69.6118   4
   1  16  17 162.311 68.0364   2
   1  16  18 90.7967 72.8996   4
   1  16  18 62.9372 66.3002   2
   1  16  19 202.465 78.4210   4
   1  16  19 134.924 70.9516   2
   1  16  20-61.9566 64.6137   4
   1  16  20-28.8512 64.1483   2
   1  16  21 469.715 94.0639   2
   1  16  21 448.173 102.801   4
   1  16  22 15.0288 63.0511   4
   1  16  22-139.046 84.5233   2
  -1  17  20 47.1899 69.1058   2
  -1  17  20 107.296 80.9934   4
  -1  17  19 372.855 97.1477   2
  -1  17  19 334.051 97.8187   4
  -1  17  18 65.1854 69.4278   2
  -1  17  18 124.934 72.4669   4
  -1  17  17 750.743 113.583   2
  -1  17  17 785.318 123.082   4
  -1  17  16 71.7946 70.5540   4
  -1  17  16 26.7021 55.6770   2
  -1  17  15 739.506 104.597   2
  -1  17  15 568.914 95.3186   4
  -1  17  14 382.110 84.5336   4
  -1  17  14 537.693 91.4236   2
  -1  17  13 59.6578 53.1126   2
  -1  17  12 164.955 56.6351   2
  -1  17  11 1595.01 125.259   2
  -1  17  10 1355.05 110.663   2
  -1  17   9 6193.06 230.085   2
  -1  17   8 121.242 49.4742   2
  -1  17   8 44.4319 47.2903   3
  -1  17   7 1660.84 111.849   2
  -1  17   7 1758.98 120.884   3
  -1  17   6 1988.56 119.487   2
  -1  17   6 2075.29 130.614   3
  -1  17   5 1233.80 100.301   3
  -1  17   4 325.603 56.3790   3
  -1  17   3 96.7826 42.3362   3
   1  17  -2 1175.35 82.7598   3
  -1  17   2 1192.11 91.9595   3
   1  17  -1 6637.22 201.712   3
  -1  17   1 6418.64 219.400   3
  -1  17   0 652.355 71.5220   3
   1  17   0 739.281 66.0704   3
   1  17   1 5369.11 182.632   3
  -1  17  -1 5413.70 196.300   3
  -1  17  -2 239.359 55.2662   3
   1  17   2 67.9276 34.3274   3
   1  17   3 108.974 43.6878   3
   1  17   4 46.1492 33.3090   3
   1  17   5 2033.16 117.148   3
   1  17   6-26.1987 36.1056   3
   1  17  10 632.798 78.9717   2
   1  17  11 285.457 59.7920   2
   1  17  12 210.225 59.6241   2
   1  17  13 348.019 72.3601   2
   1  17  14 38.0822 51.5416   2
   1  17  15 2179.75 155.860   2
   1  17  15 2192.70 162.948   4
   1  17  16-58.7127 60.5672   2
   1  17  16-16.3443 61.2138   4
   1  17  17 338.816 85.6469   4
   1  17  17 545.893 100.066   2
   1  17  18 208.308 81.6048   4
   1  17  18 405.633 87.9117   2
   1  17  19 464.158 96.8730   2
   1  17  19 423.899 92.8493   4
   1  17  20-3.91290 58.5989   2
   1  17  20 103.962 77.6217   4
   1  17  21 52.7205 72.9381   2
   1  17  21 0.89222 67.5860   4
  -1  18  20 156.707 83.0539   2
  -1  18  20 5.09872 75.4107   4
  -1  18  19 380.665 93.7404   2
  -1  18  19 527.059 106.063   4
  -1  18  18 59.1943 69.3832   4
  -1  18  18 76.4842 69.6865   2
  -1  18  17-1.04331 64.2628   2
  -1  18  17-28.6186 64.2310   4
  -1  18  16 70.3088 63.1546   2
  -1  18  16-59.7498 70.9839   4
  -1  18  15 984.402 115.193   2
  -1  18  15 999.080 120.359   4
  -1  18  14 1844.04 150.899   2
  -1  18  13 724.382 99.7145   2
  -1  18  12-4.48953 51.0865   2
  -1  18  11 2539.37 158.221   2
  -1  18  10 44.3908 48.5272   2
  -1  18   9 319.309 66.4990   2
  -1  18   8 23.8757 44.0541   3
  -1  18   8 11.5538 40.8129   2
  -1  18   7 435.656 67.9373   2
  -1  18   7 411.337 68.6444   3
  -1  18   6 296.145 58.0039   3
  -1  18   6 455.931 68.9274   2
  -1  18   5 9361.04 293.901   3
  -1  18   4 885.180 84.4755   3
  -1  18   3 13576.2 360.802   3
   1  18  -2 591.448 63.2214   3
  -1  18   2 535.455 69.9070   3
   1  18  -1 2536.67 123.682   3
  -1  18   1 2444.98 134.702   3
  -1  18   0 41.2138 35.4178   3
   1  18   0 49.8001 31.5099   3
  -1  18  -1 4672.44 184.380   3
   1  18   1 4534.29 170.438   3
  -1  18  -2 897.586 83.0188   3
   1  18   2 712.910 69.1299   3
   1  18   3 8234.43 248.337   3
  -1  18  -3 8599.39 258.779   3
   1  18   4 1183.17 89.3156   3
   1  18   5 12228.6 326.782   3
   1  18   6-26.2801 42.7811   3
   1  18  10 1851.54 128.234   2
   1  18  11 343.664 69.6933   2
   1  18  12 381.943 75.6957   2
   1  18  13 1842.92 137.183   2
   1  18  14 14.1170 49.8169   2
   1  18  15 461.035 83.3616   2
   1  18  16 34.2546 59.6857   4
   1  18  16-3.50346 57.7234   2
   1  18  17 142.804 67.4604   2
   1  18  17 88.1266 73.2804   4
   1  18  18 62.8041 58.0649   2
   1  18  18 56.1801 62.8829   4
   1  18  19 600.620 112.585   2
   1  18  19 595.019 103.556   4
   1  18  20 313.411 96.1230   4
   1  18  20 363.643 88.7452   2
   1  18  21 334.033 87.0837   4
   1  18  21 480.854 107.727   2
  -1  19  19 70.8625 66.0263   2
  -1  19  19 64.7054 74.3707   4
  -1  19  18 52.9266 71.2848   4
  -1  19  18 6.94254 56.5545   2
  -1  19  17 124.711 68.9453   2
  -1  19  17 218.316 78.5235   4
  -1  19  16-6.39095 65.8699   2
  -1  19  16 121.781 77.5717   4
  -1  19  15-66.4932 63.9732   2
  -1  19  15-25.5128 53.0710   4
  -1  19  14-99.3131 75.5870   2
  -1  19  13 13.5420 54.0968   2
  -1  19  12-28.7914 58.7086   2
  -1  19  11 9.33903 47.2993   2
  -1  19  10 719.056 91.1541   2
  -1  19   9 266.860 62.9619   2
  -1  19   8 81.6108 51.6611   2
  -1  19   8-44.9618 56.2038   3
  -1  19   7 221.844 57.8051   3
  -1  19   7 338.564 67.1807   2
  -1  19   6 19.9394 46.0380   2
  -1  19   6-18.3851 49.1082   3
  -1  19   5 104.854 47.4172   3
  -1  19   4 2351.09 143.572   3
  -1  19   3 20.8136 47.2910   3
   1  19  -3 125.481 46.2949   3
  -1  19   2 623.035 73.7951   3
   1  19  -2 648.064 68.2587   3
  -1  19   1 584.732 73.6223   3
   1  19  -1 535.057 62.1898   3
   1  19   0-41.1753 37.8274   3
  -1  19   0-30.8086 40.3866   3
   1  19   1 2424.44 126.744   3
  -1  19  -1 2592.72 139.700   3
  -1  19  -2 490.690 69.9510   3
   1  19   2 406.169 59.3288   3
  -1  19  -3 40.4094 42.9444   3
   1  19   3 65.2942 43.0019   3
   1  19   4 33.0359 37.7213   3
   1  19   5 82.7446 45.7716   3
   1  19   6 106.725 40.2251   3
   1  19   7 311.669 57.0890   3
   1  19  10 73.4988 57.2281   2
   1  19  11 425.317 76.7448   2
   1  19  12 196.358 60.2622   2
   1  19  13 328.571 76.9017   2
   1  19  14 14.6717 58.5787   2
   1  19  15 174.218 62.8715   2
   1  19  16-150.831 78.7125   2
   1  19  16 10.2739 60.4963   4
   1  19  17 62.3718 69.7201   4
   1  19  17 48.5518 59.1362   2
   1  19  18 22.4450 60.9909   4
   1  19  18 118.495 77.3474   2
   1  19  19 12.3566 60.0470   2
   1  19  19 75.3477 64.9011   4
   1  19  20 152.220 84.0550   2
   1  19  20 48.1349 74.6405   4
  -1  20  19 1019.41 146.319   4
  -1  20  19 989.366 140.117   2
  -1  20  18 16.3944 65.5155   4
  -1  20  18 32.9528 62.9345   2
  -1  20  17 40.8152 61.0687   2
  -1  20  17 69.9355 74.7843   4
  -1  20  16-69.8688 70.9694   4
  -1  20  16 83.0177 64.1654   2
  -1  20  15 727.450 104.272   2
  -1  20  15 626.653 102.317   4
  -1  20  14 353.033 86.2385   2
  -1  20  13 2248.65 165.037   2
  -1  20  12 369.971 78.9649   2
  -1  20  11 3649.36 196.060   2
  -1  20  10 3.15952 46.2606   2
  -1  20   9 1178.38 106.392   2
  -1  20   8 605.151 83.9437   3
  -1  20   8 660.940 86.3074   2
  -1  20   7 4333.54 191.968   2
  -1  20   7 4433.31 210.384   3
  -1  20   6 874.665 91.3391   2
  -1  20   6 699.029 85.0765   3
  -1  20   5 4639.64 208.031   3
  -1  20   4 4140.83 194.710   3
  -1  20   3 10707.5 323.116   3
   1  20  -3 10085.3 285.207   3
  -1  20   2 1596.29 116.385   3
   1  20  -2 1567.86 102.567   3
  -1  20   1 3204.02 162.433   3
   1  20  -1 3265.04 150.453   3
  -1  20   0 416.066 61.2735   3
   1  20   0 407.889 59.1259   3
  -1  20  -1 1724.17 118.836   3
   1  20   1 1646.30 107.953   3
  -1  20  -2 1323.69 104.560   3
   1  20   2 1310.80 96.1566   3
   1  20   3 21929.7 484.748   3
  -1  20  -3 21598.6 492.580   3
   1  20   4 1525.22 107.801   3
   1  20   5 8442.00 270.251   3
   1  20   6 11.0673 42.4978   3
   1  20   7 50.4654 40.8703   3
   1  20  10 775.925 91.2624   2
   1  20  11 2764.69 164.163   2
   1  20  12 306.077 73.1621   2
   1  20  13 1869.80 146.806   2
   1  20  14 475.544 83.7576   2
   1  20  15 347.439 75.3922   2
   1  20  16 48.0660 50.8600   2
   1  20  16 13.4550 63.1106   4
   1  20  17 58.6805 71.7172   4
   1  20  17-154.012 87.3580   2
   1  20  18 114.991 73.9199   4
   1  20  18 196.948 77.4657   2
   1  20  19 413.274 96.6859   4
   1  20  19 438.030 101.550   2
   1  20  20 252.111 94.6360   4
  -1  21  18 199.367 77.2985   4
  -1  21  18 168.742 82.7588   2
  -1  21  17 103.016 74.0253   2
  -1  21  17 102.416 77.9227   4
  -1  21  16 117.127 75.5250   2
  -1  21  16 24.1536 64.6488   4
  -1  21  15-71.1663 67.4032   2
  -1  21  14-53.8362 63.1385   2
  -1  21  13-78.0881 71.7311   2
  -1  21  12 61.3854 59.9158   2
  -1  21  11 76.9526 55.6795   2
  -1  21  10 67.7431 49.9034   2
  -1  21   9 0.05028 49.7030   2
  -1  21   8 691.595 86.0227   2
  -1  21   8 622.594 87.3200   3
  -1  21   7 408.889 71.2770   3
  -1  21   7 597.717 85.9918   2
  -1  21   6 415.396 72.4396   3
  -1  21   6 314.928 68.3489   2
  -1  21   5 1739.80 132.100   3
  -1  21   4 43.2436 42.4192   3
   1  21  -4 56.7831 45.8541   3
  -1  21   3 22.3309 43.7657   3
   1  21  -3 116.032 50.3476   3
   1  21  -2 455.292 65.9238   3
  -1  21   2 319.800 63.1799   3
  -1  21   1 31.2292 51.5062   3
   1  21  -1 117.565 41.3739   3
   1  21   0 644.041 72.7826   3
  -1  21   0 722.802 84.8643   3
   1  21   1 567.033 68.8496   3
  -1  21  -1 624.624 81.3869   3
  -1  21  -2 258.344 63.9195   3
   1  21   2 227.905 53.7646   3
  -1  21  -3 209.173 64.1949   3
   1  21   3 140.683 50.5457   3
  -1  21  -4 516.939 82.1856   3
   1  21   4 292.433 57.6704   3
   1  21   5 118.999 46.9568   3
   1  21   6-18.6120 43.4541   3
   1  21   7 242.487 56.5264   3
   1  21  10 100.801 52.9689   2
   1  21  11 458.956 83.3781   2
   1  21  12 284.539 78.5492   2
   1  21  13 228.317 67.9757   2
   1  21  14 101.342 60.6859   2
   1  21  15-129.053 68.6799   2
   1  21  16-134.975 77.4904   2
   1  21  17-0.45054 57.3424   2
   1  21  17 139.462 78.3161   4
   1  21  18 201.210 75.5865   2
   1  21  18 75.7899 75.7829   4
   1  21  19 31.1450 61.2725   4
  -1  22  17 58.0729 61.1938   2
  -1  22  17 117.560 73.7276   4
  -1  22  16 48.0355 60.8001   2
  -1  22  16-41.0803 70.6210   4
  -1  22  15 31.2781 64.0858   2
  -1  22  14 311.606 83.7969   2
  -1  22  13 2033.22 158.935   2
  -1  22  12 751.663 105.290   2
  -1  22  11 2451.92 168.597   2
  -1  22  10 101.936 59.2502   2
  -1  22   9 1668.38 133.391   2
  -1  22   8 16.1343 45.9739   2
  -1  22   8-32.1379 54.8233   3
  -1  22   7 1010.09 105.061   2
  -1  22   7 699.414 92.4495   3
  -1  22   6 838.945 98.2170   3
  -1  22   6 1033.97 100.696   2
  -1  22   5 7278.93 276.226   3
   1  22  -4 716.132 80.4880   3
  -1  22   4 670.880 88.4483   3
   1  22  -3 4599.66 189.974   3
  -1  22   3 4531.85 209.310   3
  -1  22   2 791.432 91.3614   3
   1  22  -2 953.136 86.0774   3
  -1  22   1 1112.07 104.429   3
   1  22  -1 1134.46 96.1187   3
   1  22   0 296.294 57.8602   3
  -1  22   0 276.449 61.2015   3
   1  22   1 1465.99 107.082   3
  -1  22  -1 1642.60 119.541   3
   1  22   2 263.020 56.2087   3
  -1  22  -2 253.978 60.5052   3
   1  22   3 7798.54 263.077   3
  -1  22  -3 7466.09 266.878   3
  -1  22  -4 273.325 62.2896   3
   1  22   4 217.356 56.7240   3
   1  22   5 2616.86 150.609   3
   1  22   6 2731.30 157.537   3
   1  22   7 695.019 87.2015   3
   1  22  10 93.7428 56.3895   2
   1  22  11 1821.99 141.607   2
   1  22  12 799.426 102.006   2
   1  22  13 1572.03 138.951   2
   1  22  14 36.0173 49.9023   2
   1  22  15 360.795 90.0134   2
   1  22  16-3.72659 53.1236   2
   1  22  17-138.954 84.9964   2
   1  22  17 101.473 68.9425   4
   1  22  18 44.7762 62.3078   2
   1  22  18 69.7808 81.4751   4
  -1  23  17 249.822 86.7674   4
  -1  23  16 115.157 81.5381   4
  -1  23  16 128.649 80.7367   2
  -1  23  15-89.3984 77.0222   2
  -1  23  14 34.5942 66.9275   2
  -1  23  13-66.6234 62.7604   2
  -1  23  12-13.5074 56.1455   2
  -1  23  11 256.345 76.0354   2
  -1  23  10-27.5765 59.0023   2
  -1  23   9 1497.58 137.047   3
  -1  23   9 1431.96 125.751   2
  -1  23   8-39.3255 55.2715   3
  -1  23   8 53.6296 54.6804   2
  -1  23   7 810.019 102.727   3
  -1  23   7 1012.61 105.236   2
  -1  23   6 101.021 56.5080   3
  -1  23   6 233.907 67.5279   2
   1  23  -5 254.747 63.7376   3
  -1  23   5 91.1923 60.0466   3
  -1  23   4 565.753 85.7024   3
   1  23  -4 633.753 79.8926   3
  -1  23   3 6.92785 47.6201   3
   1  23  -3 34.9552 42.1901   3
  -1  23   2 4244.71 205.773   3
   1  23  -2 4155.77 186.080   3
   1  23  -1 2781.15 149.275   3
  -1  23   1 2747.56 160.877   3
  -1  23   0-20.8214 55.3377   3
   1  23   0-36.0228 49.0626   3
   1  23   1 597.872 73.0955   3
  -1  23  -1 586.633 79.6173   3
   1  23   2 724.135 82.6814   3
  -1  23  -2 648.168 86.3972   3
   1  23   3 811.661 87.7658   3
  -1  23  -3 984.442 102.348   3
   1  23   4 208.365 57.5711   3
  -1  23  -4 204.391 63.6020   3
  -1  23  -5 141.363 63.8131   3
   1  23   5-23.1394 45.7590   3
   1  23   6 132.606 55.7330   3
   1  23   7 798.228 93.3096   3
   1  23  10 177.252 61.5438   2
   1  23  11 1100.93 118.179   2
   1  23  12 59.6784 52.4343   2
   1  23  13 37.4975 59.9455   2
   1  23  14 12.4584 55.9706   2
   1  23  15 575.577 101.979   2
   1  23  16 127.521 69.3482   2
   1  23  17 121.527 65.4383   2
   1  23  17 154.008 85.1290   4
   1  23  18-56.9815 64.9770   4
  -1  24  16 188.459 81.7888   2
  -1  24  16-5.87063 59.8410   4
  -1  24  15 31.2928 58.0429   2
  -1  24  14-66.8656 63.4129   2
  -1  24  13 309.395 82.0408   2
  -1  24  12 270.802 79.8067   2
  -1  24  11 845.513 113.075   2
  -1  24  10 11.9701 54.5337   2
  -1  24   9 271.825 68.8120   2
  -1  24   9 268.682 81.1916   3
  -1  24   8 191.495 69.0284   2
  -1  24   8 112.531 65.2803   3
  -1  24   7 109.510 62.9343   2
  -1  24   7 16.3514 48.4685   3
  -1  24   6-50.8639 57.2163   3
  -1  24   6 193.525 68.5954   2
   1  24  -5 1998.53 131.418   3
  -1  24   5 1896.89 145.314   3
   1  24  -4 1022.27 98.8358   3
  -1  24   4 1038.91 111.038   3
   1  24  -3 1807.74 124.740   3
  -1  24   3 1592.99 132.471   3
  -1  24   2 294.217 68.8289   3
   1  24  -2 343.286 63.9792   3
   1  24  -1 299.380 61.3163   3
  -1  24   1 289.830 62.9175   3
  -1  24   0-82.8896 61.1040   3
   1  24   0-78.9141 53.9811   3
  -1  24  -1 684.879 87.9678   3
   1  24   1 795.258 87.2808   3
  -1  24  -2-11.9656 53.1961   3
   1  24   2 30.7060 44.2534   3
  -1  24  -3 2994.83 174.166   3
   1  24   3 3038.96 168.269   3
   1  24   4 1813.22 131.449   3
  -1  24  -4 1768.15 134.428   3
   1  24   5 786.383 92.1820   3
  -1  24  -5 866.736 97.9659   3
  -1  24  -6 272.715 68.0688   3
   1  24   6 176.013 57.0697   3
   1  24   7 1224.56 117.668   3
   1  24  10 95.0322 60.3792   2
   1  24  11 1558.37 139.368   2
   1  24  12 344.214 83.4240   2
   1  24  13 710.127 105.026   2
   1  24  14 372.832 90.3735   2
   1  24  15 201.971 75.5259   2
   1  24  16 38.5033 67.4905   2
   1  24  17-45.7609 75.8599   4
  -1  25  15 876.932 127.351   2
  -1  25  14-29.1274 67.7448   2
  -1  25  13-40.9490 71.9039   2
  -1  25  12-109.666 74.9652   2
  -1  25  11 1127.06 127.796   2
  -1  25  10 632.451 99.4027   2
  -1  25   9 1858.12 148.371   2
  -1  25   9 1847.57 159.782   3
  -1  25   8 73.5137 56.2228   2
  -1  25   8 3.71993 56.0887   3
  -1  25   7 1548.54 130.857   2
  -1  25   7 1410.13 134.289   3
  -1  25   6-44.4094 61.6819   3
   1  25  -6 43.7992 44.5292   3
   1  25  -5 128.110 53.5741   3
  -1  25   5 60.5535 50.5070   3
  -1  25   4 118.390 63.1193   3
   1  25  -4 25.3223 45.5095   3
   1  25  -3 62.6464 45.2391   3
  -1  25   3 16.3236 48.4173   3
   1  25  -2-12.9339 42.3233   3
  -1  25   2 14.5757 54.6489   3
   1  25  -1 468.960 71.1951   3
  -1  25   1 459.900 77.0337   3
  -1  25   0 1942.14 146.063   3
   1  25   0 2044.89 136.720   3
   1  25   1 3478.59 180.219   3
  -1  25  -1 3350.42 188.526   3
  -1  25  -2 736.518 90.5150   3
   1  25   2 851.766 94.4428   3
  -1  25  -3 1207.10 117.305   3
   1  25   3 1220.30 109.295   3
   1  25   4 346.354 65.4898   3
  -1  25  -4 406.332 78.9039   3
  -1  25  -5 323.767 76.9468   3
   1  25   5 119.984 55.2732   3
   1  25   6 972.451 106.678   3
  -1  25  -6 1044.49 111.794   3
   1  25   7 1346.36 123.714   3
   1  25  10 540.343 96.0217   2
   1  25  11 228.211 78.3532   2
   1  25  12 294.401 77.9869   2
   1  25  13 142.782 76.0907   2
   1  25  14-29.3447 64.5720   2
   1  25  15 550.981 98.4403   2
  -1  26  14-86.8309 79.1403   2
  -1  26  13-56.6351 73.7935   2
  -1  26  12-99.7728 80.4647   2
  -1  26  11 205.629 70.3992   2
  -1  26  10 282.991 81.3150   2
  -1  26   9 91.1696 73.1238   3
  -1  26   9 97.2659 61.8459   2
  -1  26   8 168.287 75.5749   3
  -1  26   8 170.911 64.4917   2
  -1  26   7 25.8767 61.0361   3
  -1  26   7 83.6989 58.9643   2
   1  26  -6 104.416 49.8965   3
  -1  26   6 157.420 65.2207   2
  -1  26   6 16.9795 47.6989   3
  -1  26   5 221.445 72.9127   3
   1  26  -5 388.183 72.5541   3
  -1  26   4 128.826 60.7707   3
   1  26  -4 163.558 56.9365   3
  -1  26   3 307.803 76.9864   3
   1  26  -3 278.895 63.9888   3
  -1  26   2 94.9487 53.3196   3
   1  26  -2 43.2576 43.8426   3
  -1  26   1 189.538 63.0941   3
   1  26  -1 159.026 52.3902   3
  -1  26   0 326.202 78.6426   3
   1  26   0 201.753 62.3488   3
   1  26   1 43.7350 47.0177   3
  -1  26  -1 19.9860 51.5220   3
   1  26   2-61.9311 53.7617   3
  -1  26  -2 14.4771 43.9218   3
   1  26   3 19.4929 46.9949   3
  -1  26  -3-55.7554 51.1099   3
  -1  26  -4 201.378 63.1206   3
   1  26   4 170.866 56.9614   3
  -1  26  -5 1603.68 134.326   3
   1  26   5 1415.53 126.045   3
  -1  26  -6 283.320 75.2759   3
   1  26   6 261.375 68.2617   3
  -1  26  -7 28.7456 59.7807   3
   1  26   7 98.7775 60.5024   3
   1  26  10 180.315 76.5237   2
   1  26  11 86.5214 74.0766   2
   1  26  12 46.6048 57.7731   2
   1  26  13 92.3950 72.0033   2
   1  26  14-46.0410 72.1968   2
  -1  27  13-106.216 77.9706   2
  -1  27  12-5.41506 68.5592   2
  -1  27  11 440.974 91.9796   2
  -1  27  10 355.444 88.1971   2
  -1  27   9 1974.37 168.699   3
  -1  27   9 1879.08 162.167   2
  -1  27   8 761.125 112.869   3
  -1  27   8 756.874 104.910   2
   1  27  -7 1296.02 118.976   3
  -1  27   7 1438.20 137.413   2
  -1  27   7 1220.88 132.546   3
  -1  27   6 169.665 70.8792   3
  -1  27   6 269.128 72.6983   2
   1  27  -6 373.153 78.0593   3
   1  27  -5 60.3946 52.1020   3
  -1  27   5 45.4876 57.9776   3
  -1  27   4 276.207 77.7964   3
   1  27  -4 374.740 74.6698   3
  -1  27   3 1176.93 126.350   3
   1  27  -3 1144.60 108.844   3
   1  27  -2 680.092 89.6485   3
  -1  27   2 727.737 100.786   3
   1  27  -1 3629.98 192.206   3
  -1  27   1 3745.53 208.970   3
   1  27   0 1200.79 113.021   3
  -1  27   0 1315.69 126.468   3
   1  27   1 1510.86 128.043   3
  -1  27  -1 1664.87 141.281   3
  -1  27  -2 161.603 57.8343   3
   1  27   2 176.117 60.1478   3
   1  27   3 1042.79 109.940   3
  -1  27  -3 1090.39 114.439   3
   1  27   4-2.54997 50.1960   3
  -1  27  -4-15.0582 57.4807   3
   1  27   5 84.9741 50.5703   3
  -1  27  -5 192.768 65.7329   3
  -1  27  -6 367.555 79.0567   3
   1  27   6 314.994 72.9234   3
   1  27   7 1247.75 125.141   3
  -1  27  -7 1474.70 134.635   3
  -1  27  -8 1252.06 124.821   3
   1  27   9 1223.89 131.428   2
   1  27  10 429.268 94.0948   2
   1  27  11 864.001 115.643   2
   1  27  12 83.7715 62.1412   2
   1  27  13 88.9689 66.7976   2
  -1  28  11 109.846 74.5559   2
  -1  28  10 50.8605 66.3285   2
  -1  28   9 99.8596 78.3632   2
  -1  28   8 141.304 73.3398   2
   1  28  -8 149.647 66.2239   3
  -1  28   8 215.958 77.8085   3
   1  28  -7 198.278 66.9860   3
  -1  28   7 178.167 74.0400   2
  -1  28   7 25.1744 64.2601   3
  -1  28   6 13.4708 59.8273   3
   1  28  -6 178.393 66.2555   3
  -1  28   6 146.668 71.1790   2
  -1  28   5 197.627 70.2637   3
   1  28  -5 238.639 64.2472   3
   1  28  -4 225.158 65.4976   3
  -1  28   4 378.849 87.3917   3
   1  28  -3 100.982 57.2355   3
  -1  28   3 87.5750 56.3612   3
   1  28  -2 49.7641 50.1676   3
  -1  28   2-0.99691 51.5249   3
   1  28  -1 107.390 54.2995   3
  -1  28   1 39.6151 59.7073   3
   1  28   0 18.8300 45.2939   3
  -1  28   0 30.8315 54.6974   3
   1  28   1 62.5569 60.4851   3
  -1  28  -1 16.2786 57.4640   3
   1  28   2 63.9147 52.5293   3
  -1  28  -2 92.6828 61.6005   3
  -1  28  -3 78.3604 67.3567   3
   1  28   3-35.1109 52.2552   3
  -1  28  -4 64.8485 63.3239   3
   1  28   4-51.3161 54.6570   3
   1  28   5 66.3396 49.4641   3
  -1  28  -5 121.610 62.9811   3
  -1  28  -6 150.380 71.6539   3
   1  28   6 131.628 57.5728   3
  -1  28  -7 174.105 69.1925   3
   1  28   7 135.390 65.9312   3
  -1  28  -8 268.972 78.4507   3
   1  28   9 333.981 91.0420   2
   1  28  10 147.412 71.4820   2
   1  28  11 124.168 67.9122   2
  -1  29  10 264.858 87.6686   2
   1  29  -9 1402.68 129.632   3
  -1  29   9 1296.77 142.821   2
  -1  29   8 668.806 102.088   2
  -1  29   8 400.405 92.1540   3
   1  29  -8 646.214 92.1586   3
   1  29  -7 587.703 91.4165   3
  -1  29   7 698.802 104.538   2
  -1  29   7 795.667 116.345   3
  -1  29   6 326.330 81.8531   3
  -1  29   6 406.072 90.2010   2
   1  29  -6 406.398 79.2130   3
   1  29  -5 1.01077 44.6610   3
  -1  29   5 49.1597 56.8033   3
  -1  29   4 76.6656 59.4769   3
   1  29  -4-1.17799 46.4829   3
   1  29  -3 828.039 101.160   3
  -1  29   3 775.900 108.698   3
   1  29  -2 470.229 81.7217   3
  -1  29   2 453.887 90.0339   3
   1  29  -1 750.155 98.2171   3
  -1  29   1 875.340 112.074   3
  -1  29   0 1006.90 118.428   3
   1  29   0 1076.13 116.706   3
   1  29   1 2329.27 164.289   3
  -1  29  -1 2011.79 161.723   3
   1  29   2 416.603 77.0887   3
  -1  29  -2 351.880 82.5617   3
  -1  29  -3 23.3508 53.7958   3
   1  29   3 14.9538 48.9855   3
   1  29   4-43.0982 55.4247   3
  -1  29  -4-17.3159 47.4948   3
  -1  29  -5 143.954 67.1303   3
   1  29   5 83.9322 56.3007   3
  -1  29  -6 332.753 77.2102   3
   1  29   6 248.178 69.7500   3
   1  29   7 479.425 90.1371   3
  -1  29  -7 577.303 100.830   3
  -1  29  -8 605.972 103.658   3
   1  29   9 820.705 111.628   2
  -1  29  -9 859.511 117.136   3
   1  29  10 436.556 98.9938   2
   1  30 -10 117.325 66.8693   3
   1  30  -9 86.9783 63.4633   3
  -1  30   9 81.5937 60.3294   2
  -1  30   8 46.6357 62.4273   2
  -1  30   8-15.1626 66.0232   3
   1  30  -8 126.643 64.1796   3
   1  30  -7 87.4878 58.9988   3
  -1  30   7-8.53596 70.4944   3
  -1  30   7 67.1295 63.4480   2
  -1  30   6 401.154 92.4674   3
  -1  30   6 837.245 121.740   2
   1  30  -6 511.009 86.3866   3
  -1  30   5 588.983 101.128   2
   1  30  -5 411.595 82.1432   3
  -1  30   5 458.555 98.8740   3
  -1  30   4 520.666 100.309   3
   1  30  -4 531.865 89.2902   3
  -1  30   3 295.187 80.5125   3
   1  30  -3 345.379 74.8326   3
   1  30  -2-33.4737 58.7225   3
  -1  30   2 122.912 69.4669   3
  -1  30   1 275.543 81.3840   3
   1  30  -1 328.095 71.6226   3
  -1  30   0 26.3966 61.4983   3
   1  30   0 92.1735 51.3937   3
   1  30   1 49.4469 58.8669   3
  -1  30  -1 61.1779 63.9044   3
  -1  30  -2 100.507 71.7387   3
   1  30   2 7.38013 49.2910   3
   1  30   3 280.388 72.7167   3
  -1  30  -3 309.051 75.9342   3
   1  30   4-19.2479 54.3790   3
  -1  30  -4-39.3287 64.6542   3
   1  30   5 524.593 88.2390   3
  -1  30  -5 504.638 88.4784   3
  -1  30  -6 214.492 76.6724   3
   1  30   6 33.4468 50.8451   3
  -1  30  -7 631.124 103.812   3
   1  30   7 458.854 90.0954   3
  -1  30  -8 21.2233 51.4440   3
  -1  30  -9 104.644 65.8346   3
  -1  30 -10 353.255 86.5495   3
   1  31 -11 93.1275 68.7424   3
   1  31 -10 177.624 74.0186   3
   1  31  -9 465.953 91.7310   3
  -1  31   8 154.599 72.5319   3
   1  31  -8 103.514 62.2393   3
   1  31  -7 213.012 74.1082   3
  -1  31   7 205.674 74.5935   3
  -1  31   7 326.380 92.6383   2
  -1  31   6 231.056 87.4958   3
  -1  31   6 348.096 91.9990   2
   1  31  -6 269.798 77.9320   3
   1  31  -5 50.3540 55.7228   3
  -1  31   5 34.3648 59.3224   3
  -1  31   5 75.5063 64.5363   2
   1  31  -4-5.33480 53.7363   3
  -1  31   4 99.4763 66.0146   3
  -1  31   3 40.8736 58.4279   3
   1  31  -3 2.08754 48.2898   3
   1  31  -2 133.769 58.9530   3
  -1  31   2 154.954 77.4439   3
   1  31  -1 278.877 70.7124   3
  -1  31   1 277.467 82.0425   3
  -1  31   0 50.8833 64.9160   3
   1  31   0 279.059 71.1903   3
  -1  31  -1 511.713 94.0718   3
   1  31   1 633.096 99.7731   3
   1  31   2 115.049 62.3292   3
  -1  31  -2 196.211 71.5780   3
  -1  31  -3 24.9133 59.2919   3
   1  31   3 90.1683 53.8562   3
   1  31   4 57.8647 58.4679   3
  -1  31  -4 57.8148 59.7971   3
   1  31   5 145.201 65.7844   3
  -1  31  -5-3.59058 61.3704   3
  -1  31  -6 90.5257 58.9174   3
   1  31   6 74.8000 64.3988   3
  -1  31  -7 432.448 94.7907   3
  -1  31  -8 100.390 68.7781   3
  -1  31  -9 238.955 83.5641   3
  -1  31 -10 112.001 73.3009   3
   1  32 -10 158.046 70.9576   3
   1  32  -9 37.8216 59.1731   3
  -1  32   8 48.4295 70.5765   3
   1  32  -8 52.5765 60.1523   3
  -1  32   7 108.435 81.0972   3
   1  32  -7 320.854 81.8190   3
  -1  32   6 237.182 88.5169   3
   1  32  -6 150.926 67.1833   3
   1  32  -5 687.412 103.122   3
  -1  32   5 972.536 126.800   3
  -1  32   5 1220.22 137.055   2
  -1  32   4 537.546 99.2115   3
   1  32  -4 407.579 84.4000   3
   1  32  -3 1028.37 118.035   3
  -1  32   3 1030.22 130.421   3
   1  32  -2 44.3921 53.3494   3
  -1  32   2 17.8973 64.3177   3
  -1  32   1 179.912 74.4260   3
   1  32  -1 11.2742 56.4533   3
  -1  32   0-38.3448 72.4059   3
   1  32   0-74.9306 60.7855   3
   1  32   1 130.532 65.3137   3
  -1  32  -1 187.570 67.6327   3
  -1  32  -2 95.1337 58.9846   3
  -1  32  -3 604.746 106.124   3
  -1  32  -4 402.498 86.3878   3
  -1  32  -5 816.050 120.378   3
  -1  32  -6 30.0472 66.0857   3
  -1  32  -7 63.1321 67.7309   3
  -1  32  -8 51.4371 64.9320   3
  -1  33   7 51.6015 63.5236   3
  -1  33   6-101.053 78.3919   3
  -1  33   5-53.6327 74.5693   3
  -1  33   4 49.4536 67.9617   3
  -1  33   3 144.334 71.5916   3
  -1  33   2 125.288 71.3260   3
  -1  33   1-5.72666 67.6939   3
  -1  33   0 4.14663 69.7940   3
  -1  33  -1 10.0507 58.4110   3
  -1  33  -2 6.69795 64.1707   3
  -1  33  -3-56.4884 65.4700   3
  -1  33  -4 15.3965 70.2693   3
  -1  33  -5 98.2456 60.2072   3
  -1  33  -6 18.8998 56.1399   3
  -1  34   5 295.116 89.5405   3
  -1  34   4 461.448 106.801   3
  -1  34   3 719.014 120.329   3
  -1  34   2 288.136 81.7584   3
  -1  34   1 55.3961 69.5397   3
  -1  34   0-46.0264 72.1981   3
  -1  34  -1-38.2328 65.8628   3
  -1  34  -2 246.133 89.5799   3
  -1  34  -3 357.073 89.2167   3
  -1  34  -4 325.714 83.3979   3
  -2   0  24 854.067 128.833   2
  -2   0  23 106.581 73.4642   2
  -2   0  22 284.219 86.7361   2
  -2   0  21-3.32330 62.2071   2
  -2   0  20 540.039 95.0640   2
  -2   0  19 30.5088 55.9877   2
  -2   0  18 1879.30 152.183   2
  -2   0  17 30.0886 61.9497   2
  -2   0  16 5791.12 247.924   2
  -2   0  15 68.2814 53.9093   2
  -2   0  14 4516.11 203.685   2
  -2   0  13 18.3844 39.9776   2
  -2   0  12 1349.85 100.787   2
  -2   0  11-19.2317 38.8516   2
  -2   0  10 27481.6 553.945   2
  -2   0   9-40.5929 35.5795   2
  -2   0   8 5177.74 173.207   2
  -2   0   7-20.5236 33.5221   2
   2   0  -6 12361.7 275.176   2
   2   0  -6 12928.7 283.435   4
  -2   0   6 12022.4 278.335   2
   2   0  -5 3.12968 19.9211   2
  -2   0   5-26.4984 25.4277   2
   2   0  -5 25.0662 21.2700   4
  -2   0   4 270757. 3979.08   2
   2   0  -4 279826. 3978.56   2
   2   0  -4 279812. 3977.56   4
   2   0  -3-4.11818 12.3090   1
  -2   0   3-1.07457 22.4394   2
   2   0  -3-3.55198 16.2646   2
   2   0  -3 17.5458 14.9932   3
   2   0  -3 29.2268 21.2886   4
  -2   0   2 75503.3 1149.05   2
   2   0  -2 78054.4 1149.44   2
   2   0  -2 76715.2 1139.72   4
   2   0  -2 76632.8 1126.39   3
  -2   0   1 46.7986 19.4737   2
  -2   0   1 9.55801 9.87331   3
   2   0  -1-3.38375 12.4474   2
   2   0  -1-8.86182 9.58860   3
   2   0  -1 20.7736 12.1920   4
  -2   0   0 21286.3 332.850   3
   2   0   0 21303.2 347.993   2
   2   0   0 21955.3 330.950   4
   2   0   5-13.1498 11.0262   2
  -2   0  -5-5.44535 10.5279   4
   2   0   6 72831.4 1085.00   2
  -2   0  -6 74064.4 1102.58   4
   2   0   7 1.00143 13.6289   2
  -2   0  -7 7.15302 14.3452   4
   2   0   8 39553.3 632.879   2
  -2   0  -8 40096.7 653.553   4
   2   0   9-19.7087 21.2003   2
  -2   0  -9-2.26660 18.8176   4
   2   0  10 15463.0 310.577   2
   2   0  11 20.5765 24.0181   2
   2   0  12 4796.94 156.871   2
   2   0  13-32.3236 29.6202   2
   2   0  14 1067.93 79.4515   2
   2   0  14 1000.55 78.3844   1
   2   0  15-33.8909 39.6706   1
   2   0  15-26.6386 38.0882   2
   2   0  16 3619.08 160.426   2
   2   0  16 3201.30 152.099   1
   2   0  17-17.6295 39.2252   1
   2   0  17 80.5700 43.6784   2
   2   0  18 2408.67 142.774   2
   2   0  18 2569.29 137.481   1
   2   0  19-4.53922 39.6098   1
   2   0  19-0.84705 38.1240   2
   2   0  20 42.4522 45.1291   2
  -2   1  25 318.159 106.165   2
  -2   1  24 140.030 78.7293   2
  -2   1  23 53.2708 69.9244   2
  -2  -1  22 109.370 74.2322   2
  -2   1  22 72.1014 69.2892   2
  -2  -1  21 110.003 74.1216   2
  -2   1  21 58.9052 61.1815   2
  -2  -1  20 150.823 74.4573   2
  -2   1  20 80.4988 63.6995   2
  -2  -1  19 290.674 81.0769   2
  -2   1  19 87.4112 67.8819   2
  -2  -1  18 37.5072 61.0775   2
  -2   1  18-27.8171 55.7402   2
  -2  -1  17 45.8339 61.2575   2
  -2   1  17 18.1675 51.4035   2
  -2   1  16-23.8603 50.5448   2
  -2  -1  16 91.1725 58.9028   2
  -2   1  15 34.2892 49.7584   2
  -2  -1  15 6.79837 46.4513   2
  -2  -1  14 2882.34 161.014   2
  -2   1  14 2811.79 159.488   2
  -2   1  13 19.3961 38.8976   2
  -2  -1  13 79.7840 44.9412   2
  -2   1  12 27.9686 40.1427   2
  -2  -1  12 65.9873 43.4271   2
  -2  -1  11 1466.72 104.644   2
  -2   1  11 1292.51 97.4687   2
  -2   1  10 451.243 62.0452   2
  -2  -1  10 327.682 54.2232   2
  -2  -1   9 2753.25 130.145   2
  -2   1   9 2759.30 129.675   2
  -2  -1   8 2230.71 112.030   2
  -2   1   8 2136.83 108.382   2
  -2  -1   7 622.291 60.8174   2
  -2   1   7 565.769 56.1702   2
  -2  -1   6 3695.53 134.593   2
   2  -1  -6 3903.81 134.040   4
  -2   1   6 3580.57 132.447   2
   2   1  -6 3818.94 132.283   2
  -2   1   6 3890.03 134.747   4
   2   1  -6 4029.87 137.651   4
   2  -1  -6 3832.74 129.244   2
   2   1  -5 2401.01 96.6217   4
   2  -1  -5 2435.45 96.1604   4
  -2  -1   5 2312.04 98.8824   2
   2   1  -5 2323.42 95.3431   2
   2  -1  -5 2403.78 94.7281   2
  -2   1   5 2193.86 94.4094   2
  -2   1   5 2411.09 97.3725   4
  -2   1   4 35674.7 602.801   2
   2   1  -4 36932.0 605.256   2
  -2  -1   4 37025.7 537.860   1
   2  -1  -4 36978.1 600.340   4
   2  -1  -4 36313.0 599.538   2
   2  -1  -4 36976.3 592.477   3
  -2  -1   4 34995.4 603.311   2
  -2   1   4 35678.5 598.631   4
   2  -1  -3 1206.38 58.0722   4
   2   1  -3 1216.09 61.3552   2
  -2   1   3 1198.57 59.7163   2
   2   1  -3 1266.80 40.0401   1
  -2  -1   3 1263.98 64.1968   2
  -2  -1   3 1256.70 40.6180   1
   2  -1  -3 1280.25 56.2270   3
   2  -1  -3 1219.63 59.3806   2
  -2   1   3 1155.34 57.7499   4
  -2   1   2 53411.4 810.304   4
   2   1  -2 54584.4 791.825   1
   2  -1  -2 53175.8 806.271   3
   2   1  -2 53130.0 823.525   2
   2   1  -2 52192.2 794.090   3
   2  -1  -2 54586.5 819.071   2
   2  -1  -2 53669.9 811.058   4
  -2   1   2 53128.6 819.338   2
  -2   1   2 53037.3 806.414   3
   2  -1  -1 5477.59 122.643   2
  -2   1   1 5328.27 123.200   2
  -2  -1   1 5289.78 104.177   3
   2   1  -1 5639.73 121.215   1
   2  -1  -1 5490.73 115.057   4
   2  -1  -1 5548.62 116.759   3
  -2   1   1 5608.29 117.223   3
  -2   1   1 5522.51 116.139   4
   2   1  -1 5631.40 104.868   3
   2   1   0 451.664 30.4235   1
   2  -1   0 438.942 25.5666   2
  -2   1   0 456.627 27.5268   2
  -2   1   0 426.179 21.6769   4
  -2  -1   0 479.711 18.9218   3
  -2   1   0 454.066 25.9472   3
   2  -1   1 266.061 17.0236   2
  -2   1  -4 236409. 3380.51   4
   2   1   4 241258. 3383.28   4
  -2   1  -5 1315.35 49.6876   4
   2  -1   5 1341.53 40.7578   2
   2   1   5 1368.98 45.9061   2
   2   1   5 1316.70 50.7641   4
   2   1   6 4670.98 118.609   4
   2  -1   6 4577.18 101.191   2
   2   1   6 4572.62 106.959   2
  -2   1  -6 4654.09 116.352   4
   2   1   7 329.336 30.4204   2
  -2   1  -7 438.170 35.8515   4
   2  -1   7 385.698 28.5296   2
  -2   1  -8 698.667 37.1850   2
   2  -1   8 682.820 41.0210   2
   2   1   8 654.426 43.4257   2
  -2   1  -8 698.686 47.7615   4
   2  -1   9 5206.60 140.298   2
   2   1   9 5394.94 146.637   2
  -2   1  -9 5348.41 155.577   4
  -2   1  -9 5623.43 130.348   2
  -2   1 -10 165.327 25.6265   2
   2   1  10 157.480 28.0613   2
   2  -1  10 191.881 30.0828   2
  -2   1 -11 2516.06 90.1001   2
   2  -1  11 2424.96 100.887   2
   2   1  11 2436.85 105.012   2
   2   1  11 2012.70 108.099   1
   2   1  12 290.209 43.7253   1
   2  -1  12 324.169 43.4590   2
   2   1  12 360.745 43.8084   2
   2   1  13 69.8681 32.8561   2
   2   1  13 85.4657 35.7476   1
   2  -1  13 62.7227 28.5897   2
   2   1  14-40.9948 37.6618   2
   2  -1  14-38.0191 33.3542   2
   2   1  14-83.2066 47.7053   1
   2   1  15 38.6428 35.5008   1
   2   1  15 71.9828 34.6844   2
   2  -1  15 15.6564 31.2665   2
   2   1  16-16.2546 38.8636   2
   2  -1  16-58.8092 47.4714   1
   2  -1  16-9.58144 37.1623   2
   2   1  16-41.3873 41.2983   1
   2   1  17 539.756 71.3060   2
   2  -1  17 382.661 59.1331   1
   2  -1  17 466.122 64.7291   2
   2   1  17 550.646 67.7929   1
   2   1  18 46.1799 37.9190   1
   2  -1  18-2.37854 43.3832   1
   2   1  18 16.5747 38.3269   2
   2  -1  18 64.4708 39.7879   2
   2  -1  19 148.516 52.9770   2
   2  -1  19 94.8956 43.4474   1
   2   1  19 112.937 48.1948   1
   2   1  19 126.299 49.3154   2
   2  -1  20 26.4184 41.9052   2
   2   1  20-4.85240 46.7562   2
  -2   2  25 252.457 99.1443   2
  -2   2  24 455.590 106.876   2
  -2   2  23 155.008 88.7234   2
  -2   2  22 119.679 71.0867   2
  -2   2  21 229.172 74.0612   2
  -2   2  20 315.842 83.6974   2
  -2  -2  20 400.908 88.2750   2
  -2  -2  19 117.353 65.9570   2
  -2   2  19 7.21214 56.5791   2
  -2   2  18 5126.41 250.272   2
  -2  -2  18 5435.38 252.298   2
  -2  -2  17 56.9983 60.4127   2
  -2   2  17 65.3596 61.6908   2
  -2  -2  16 4778.60 223.101   2
  -2   2  16 4800.67 224.193   2
  -2  -2  15 191.875 64.9691   2
  -2   2  15 171.700 58.9573   2
  -2   2  14 3410.25 176.488   2
  -2  -2  14 3550.40 176.617   2
  -2  -2  14 2884.00 71.1071   1
  -2  -2  13 82.3131 47.6109   2
  -2  -2  13 67.1973 11.0958   1
  -2   2  13 50.0937 41.2676   2
  -2   2  12 140.414 48.4645   2
  -2  -2  12 172.191 53.0282   2
  -2  -2  11 96.0778 45.1000   2
  -2   2  11 139.192 46.1703   2
  -2   2  10 6638.27 220.235   2
  -2  -2  10 6735.58 220.181   2
  -2   2   9 49.8441 46.1016   4
  -2   2   9-10.3111 37.0170   2
  -2  -2   9 0.62298 34.5890   2
  -2   2   8 35877.7 646.733   2
  -2  -2   8 35600.2 647.799   2
  -2   2   8 35042.4 649.484   4
  -2  -2   7 28.3811 33.0959   2
  -2   2   7-39.5849 30.9657   4
  -2   2   7-28.2636 29.1751   2
  -2   2   6 31737.0 567.718   2
   2   2  -6 31694.9 568.206   2
   2  -2  -6 32958.6 561.418   2
  -2   2   6 30899.5 567.684   4
   2  -2  -6 32553.1 567.771   4
  -2  -2   6 31669.5 569.309   2
  -2  -2   5 3526.14 76.4476   1
   2  -2  -5 3502.42 117.344   3
  -2   2   5 3534.30 120.952   4
   2  -2  -5 3517.32 116.951   2
  -2  -2   5 3589.74 125.301   2
   2   2  -5 3459.65 120.981   2
   2  -2  -5 3802.92 122.212   4
  -2   2   5 3467.59 121.123   2
  -2  -2   4 18540.0 294.190   1
   2   2  -4 18515.7 351.805   2
   2  -2  -4 18340.7 341.489   3
   2  -2  -4 19026.6 345.538   4
  -2   2   4 18048.4 344.343   4
   2  -2  -4 18336.0 342.255   2
  -2   2   4 18323.4 346.504   2
  -2   2   3 69774.6 1071.32   3
  -2   2   3 70869.2 1078.99   2
   2  -2  -3 71925.7 1076.36   2
  -2   2   3 69200.5 1075.02   4
   2  -2  -3 73084.8 1072.55   3
   2   2  -3 70922.3 1086.32   2
  -2  -2   3 73511.4 1039.08   1
  -2   2   2 135304. 2003.97   2
  -2  -2   2 139506. 1983.33   1
  -2   2   2 136092. 1998.16   3
   2   2  -2 139609. 1980.73   1
   2  -2  -2 140195. 2002.62   2
   2  -2  -2 138668. 1999.31   3
  -2   2   2 135518. 1997.49   4
  -2   2   1 17770.3 306.894   3
   2   2  -1 18479.9 279.711   3
  -2  -2   1 18634.1 309.712   1
  -2   2   1 18024.9 307.651   2
   2   2  -1 17912.3 305.328   1
  -2   2   1 18132.9 300.453   4
   2  -2  -1 17898.6 306.361   2
   2  -2  -1 18103.2 306.419   3
  -2   2   0 42381.6 634.715   2
  -2  -2   0 42744.0 656.535   1
   2  -2   0 41981.9 633.025   2
   2   2   0 43348.5 654.426   1
  -2   2   0 41026.1 642.438   3
  -2   2  -1 6286.46 111.665   2
   2  -2   1 5956.62 109.349   2
  -2  -2  -1 6119.60 142.025   1
   2   2   1 6291.16 143.819   1
   2   2   2 7131.15 164.113   1
   2   2   3 25945.2 445.250   1
   2   2   4 1209.95 63.9215   1
   2  -2   5 917.027 30.7571   2
   2   2   5 968.786 44.3695   4
   2   2   5 843.401 57.1563   1
   2   2   6 14736.5 302.951   1
   2  -2   6 14381.2 247.131   2
  -2   2  -6 15104.7 239.159   2
   2   2   6 15115.8 276.920   4
   2   2   6 14863.8 262.301   2
   2   2   7 85.1005 21.0873   2
   2   2   7 75.6636 20.4235   4
  -2   2  -7 91.6123 14.1988   2
   2  -2   7 92.1788 16.1738   2
  -2   2  -7 76.0623 19.1340   4
   2   2   7 11.0866 29.5703   1
  -2   2  -8 15939.9 272.003   2
   2   2   8 16245.0 332.971   1
   2   2   8 15686.6 296.758   2
   2  -2   8 15275.0 285.836   2
   2   2   8 15806.4 314.457   4
  -2   2  -8 15814.0 311.449   4
  -2   2  -9-20.0634 20.7134   4
  -2   2  -9 11.0589 13.1166   2
   2  -2   9 2.27509 18.6162   2
   2   2   9 36.0812 23.0331   2
   2   2   9 16.8259 24.8258   4
   2   2   9-31.9052 32.3852   1
   2   2  10 3783.55 126.048   2
   2  -2  10 3523.93 115.726   2
  -2   2 -10 3389.03 102.937   2
   2   2  10 3623.02 136.342   1
   2   2  11-38.0615 37.7255   1
   2   2  11 7.49075 26.9801   2
   2  -2  11-3.27944 24.3148   2
  -2   2 -11 11.3245 15.7355   2
   2   2  12 2394.86 110.915   2
   2   2  12 2418.21 118.602   1
   2  -2  12 2519.54 107.522   2
   2   2  13 342.106 51.5279   1
   2   2  13 418.816 51.1311   2
   2  -2  13 431.416 49.3164   2
   2   2  14 1109.62 83.3040   1
   2  -2  14 1160.76 82.4879   2
   2   2  14 1156.76 85.4276   2
   2   2  15 61.7131 35.6544   2
   2  -2  15 113.645 42.4448   2
   2   2  15 35.4089 36.2546   1
   2   2  16 5460.97 205.145   2
   2  -2  16 5408.27 196.146   2
   2   2  16 5043.41 189.534   1
   2   2  17-31.4743 43.0661   2
   2   2  17 6.76200 37.3324   1
   2  -2  17 17.2071 34.7397   2
   2   2  18 1576.73 107.579   1
   2   2  18 1295.57 107.047   2
   2  -2  18 1317.74 102.682   1
   2  -2  18 1485.25 109.250   2
   2  -2  19 63.0717 42.8548   1
   2  -2  19 125.565 48.7556   2
   2   2  19 134.545 48.3730   1
   2   2  19 18.1876 48.5701   2
   2   2  20 7.20756 44.2435   2
   2   2  21 102.422 49.0746   2
  -2   3  25 273.740 93.1074   2
  -2   3  24 139.859 85.8018   2
  -2   3  23 18.1064 66.0701   2
  -2   3  22 17.7556 75.8932   2
  -2   3  21 28.4443 61.1032   2
  -2   3  20 1650.67 152.894   2
  -2   3  19 16.1069 59.4127   2
  -2   3  18 81.7925 60.2654   2
  -2  -3  18 220.489 75.3330   2
  -2  -3  17 142.568 65.7979   2
  -2   3  17 99.4080 65.5203   2
  -2  -3  16 394.841 81.6989   2
  -2   3  16 410.046 75.0908   2
  -2  -3  15 420.194 78.1841   2
  -2  -3  15 314.480 24.9789   1
  -2   3  15 386.105 74.1056   2
  -2  -3  14 5554.61 226.592   2
  -2   3  14 5344.50 225.959   2
  -2   3  13 693.482 82.0754   2
  -2  -3  13 933.533 96.0855   2
  -2   3  12 2868.11 150.925   2
  -2  -3  12 3061.55 154.213   2
  -2   3  11-36.9141 47.1957   2
  -2  -3  11-10.1118 40.8764   2
  -2   3  11 62.6940 48.7265   4
  -2   3  10 7224.05 233.718   2
  -2   3  10 7514.46 241.204   4
  -2  -3  10 7661.75 237.513   2
  -2  -3   9 4615.54 172.546   2
  -2   3   9 4623.58 177.727   4
  -2   3   9 4492.74 169.686   2
  -2   3   8 13.0066 33.4597   2
  -2  -3   8 56.4382 36.4122   2
  -2   3   8 3.33634 34.3767   4
  -2   3   7 5548.31 174.472   2
  -2   3   7 5552.58 178.078   4
   2  -3  -6 16453.2 335.365   3
  -2   3   6 15808.7 337.947   4
  -2   3   6 15884.3 336.689   2
  -2   3   5 12646.5 277.809   2
   2  -3  -5 13327.7 272.770   2
  -2   3   5 13163.5 280.772   4
   2   3  -5 12734.2 279.055   2
   2  -3  -5 12906.4 275.749   3
   2   3  -4 21060.8 394.808   2
   2  -3  -4 21325.7 384.106   2
   2  -3  -4 21967.4 388.604   3
  -2  -3   4 21544.3 343.732   1
  -2   3   4 20987.9 390.098   2
  -2   3   4 21207.1 390.268   4
   2  -3  -3 2342.68 83.1376   3
  -2   3   3 2495.73 86.5883   3
   2  -3  -3 2475.52 84.1541   2
  -2   3   3 2382.79 86.3463   2
  -2   3   3 2301.17 83.6646   4
  -2  -3   3 2490.13 70.4135   1
   2  -3  -2 3726.27 100.961   2
   2  -3  -2 3879.61 104.882   3
  -2  -3   2 3804.38 96.2481   1
  -2   3   2 3843.35 106.163   3
  -2   3   2 3594.99 103.161   2
  -2   3   1 472.505 32.0912   2
  -2  -3   1 486.846 34.9962   1
  -2   3   1 438.041 32.2517   3
   2  -3  -1 480.292 30.1621   2
   2  -3  -1 476.332 33.5724   3
   2   3  -1 490.801 32.6822   1
  -2   3   0 10743.7 206.737   3
  -2   3   0 11118.9 193.812   2
   2   3   0 10385.9 210.662   1
   2  -3   0 11227.5 190.624   2
  -2  -3   0 11058.7 213.898   1
  -2   3  -1 27169.9 405.672   2
   2   3   1 26974.6 446.264   1
   2  -3   1 26559.8 399.534   2
  -2  -3  -1 26314.2 446.834   1
  -2  -3  -2 78382.9 1189.39   1
   2   3   2 79471.1 1186.63   1
   2   3   3 11.6102 23.4642   1
  -2  -3  -3-34.7852 26.2069   1
   2   3   4 11381.1 242.107   1
   2   3   5 7711.38 189.245   1
   2   3   6 11339.3 244.948   1
   2   3   6 10846.2 218.645   4
  -2   3  -6 10607.4 180.637   2
   2  -3   7 1888.87 60.9683   2
   2   3   7 1757.18 76.3750   4
   2   3   7 1626.51 85.1959   1
  -2   3  -7 1820.01 55.5898   2
   2   3   7 1826.20 70.7528   2
   2  -3   8 858.064 44.9757   2
   2   3   8 843.657 57.4891   4
   2   3   8 914.738 52.7717   2
  -2   3  -8 849.786 39.2801   2
   2   3   8 825.634 63.3202   1
   2   3   9 2841.07 113.762   4
  -2   3  -9 2861.14 110.484   4
   2  -3   9 2927.47 94.5597   2
  -2   3  -9 2925.44 86.0282   2
   2   3   9 2860.59 103.244   2
   2   3   9 2899.67 117.630   1
   2   3  10 4390.35 141.641   2
   2  -3  10 4230.43 128.461   2
   2   3  10 4483.32 153.888   1
  -2   3 -10 4522.44 118.862   2
   2   3  10 4242.31 148.971   4
   2   3  11 750.595 67.0210   1
   2  -3  11 884.901 59.9826   2
   2   3  11 802.806 69.9914   4
   2   3  11 849.518 64.2711   2
  -2   3 -11 793.268 48.2859   2
   2   3  12 6074.45 188.195   2
   2   3  12 5803.11 190.152   1
   2  -3  12 6037.45 176.985   2
  -2   3 -12 5942.82 158.066   2
   2   3  13 22.7226 29.2943   2
   2   3  13 42.2080 36.7300   1
   2  -3  13 34.5440 29.9144   2
   2  -3  14 3094.97 133.034   2
   2   3  14 3076.04 139.039   2
   2   3  14 2906.06 133.636   1
   2   3  15 659.489 72.0094   2
   2   3  15 698.960 71.3584   1
   2  -3  15 762.938 74.2060   2
   2  -3  16 969.656 83.3062   2
   2   3  16 926.407 85.7698   2
   2   3  16 767.584 76.4952   1
   2  -3  17 90.6359 42.0559   2
   2   3  17 223.692 52.6509   2
   2   3  17 139.471 44.3409   1
   2   3  18 811.687 88.2962   2
   2   3  18 815.687 80.3448   1
   2  -3  18 902.495 88.8363   2
   2  -3  19 259.107 54.3056   1
   2   3  19 301.442 59.0612   1
   2   3  19 269.151 65.3639   2
   2  -3  19 348.180 64.1140   2
   2   3  20 1647.34 128.588   2
   2   3  21-17.0447 45.3219   2
  -2   4  25 4.88942 70.6817   2
  -2   4  24 421.715 113.092   2
  -2   4  23 147.601 72.9623   2
  -2   4  22-29.7482 66.4595   2
  -2   4  21 30.2093 65.6292   2
  -2   4  20 94.4957 66.6986   2
  -2   4  19 54.7926 53.0165   2
  -2   4  18 364.115 80.4027   2
  -2   4  17 67.3153 49.8882   2
  -2   4  16 2682.27 167.856   2
  -2   4  15 95.3881 46.3471   2
  -2   4  14 154.573 58.1838   2
  -2   4  13 318.136 61.2305   2
  -2   4  12 25.2605 43.4738   4
  -2   4  12-109.893 59.2024   2
  -2   4  11 114.367 36.2517   2
  -2   4  11 151.253 49.2332   4
  -2   4  10 592.936 66.7590   2
  -2   4  10 555.443 67.9216   4
  -2   4   9 448.436 57.9230   2
  -2   4   9 479.270 62.9024   4
  -2   4   8 11616.4 283.532   2
   2  -4  -8 10418.7 180.098   1
  -2   4   8 11792.8 288.861   4
  -2   4   7 199.053 42.3589   4
  -2   4   7 189.348 36.4636   2
  -2   4   6 22.6761 29.1136   2
  -2   4   6-7.33666 33.2862   4
   2   4  -5 262.495 37.9623   2
  -2   4   5 251.955 36.4467   2
  -2   4   5 220.881 34.0097   4
   2  -4  -5 282.058 35.4986   3
   2  -4  -5 240.101 30.6427   2
   2  -4  -4-3.28896 20.8970   2
  -2   4   4 21.8072 22.9940   3
  -2   4   4 31.6285 19.6504   2
  -2   4   4 8.98177 23.3771   4
   2  -4  -4 49.6519 18.4702   3
  -2   4   3 56900.1 892.934   2
  -2   4   3 57317.1 897.393   3
   2  -4  -3 58092.7 896.851   3
   2  -4  -3 58058.4 884.979   2
   2  -4  -2 18290.3 324.738   3
  -2  -4   2 17787.6 308.333   1
  -2   4   2 17461.2 316.376   2
   2  -4  -2 18066.5 311.566   2
  -2   4   2 17557.0 323.570   3
  -2   4   1 32552.1 534.417   3
  -2  -4   1 34108.1 529.747   1
   2  -4  -1 32179.7 513.032   2
  -2   4   1 32754.1 519.500   2
   2  -4  -1 33494.2 533.266   3
   2   4   0 62905.3 971.052   1
  -2  -4   0 68276.8 982.697   1
  -2   4   0 61163.0 969.283   3
   2  -4   0 63921.1 942.213   2
  -2   4   0 65188.4 948.328   2
   2   4   1 17903.7 322.144   1
  -2  -4  -1 17610.7 325.948   1
  -2   4  -1 18252.6 284.501   2
   2   4   2 49834.4 774.790   1
  -2   4  -2 48868.0 710.261   2
  -2  -4  -2 48679.2 775.437   1
   2   4   3 42113.8 672.760   1
  -2  -4  -3 40963.8 675.857   1
  -2  -4  -4 541.619 44.9394   1
   2   4   4 543.924 45.9230   1
  -2  -4  -5 1577.62 76.6028   1
   2   4   5 1571.93 77.1143   1
  -2   4  -5 1382.66 37.6205   2
  -2   4  -6 26410.2 407.236   2
   2   4   6 27358.5 480.928   1
  -2   4  -7 2191.41 65.1507   2
   2   4   7 2412.05 91.1708   4
   2   4   7 2367.31 101.593   1
   2   4   7 2328.88 82.7313   2
   2   4   8 32859.6 577.964   1
   2   4   8 32086.0 540.885   2
  -2   4  -8 31701.3 509.140   2
   2   4   8 32838.0 560.911   4
  -2   4  -9 28.7880 15.2784   2
   2   4   9 14.4135 29.0560   1
   2   4   9 10.4593 22.9795   2
   2   4   9 35.1205 24.8888   4
   2   4  10 7828.44 216.682   1
  -2   4 -10 8154.43 178.151   2
   2   4  10 8052.43 219.026   4
   2   4  10 7797.32 205.205   2
   2   4  11 106.381 36.6901   4
   2   4  11 121.575 36.9834   1
  -2   4 -11 104.784 19.6140   2
   2   4  11 182.150 37.5891   2
   2  -4  11 169.104 32.0363   2
   2  -4  12 40.2226 28.2503   2
   2   4  12 1.39281 34.1173   4
   2   4  12 46.4452 31.1806   2
  -2   4 -12-19.4073 21.4885   2
   2   4  12 65.5642 37.7959   1
   2  -4  13 168.913 40.1580   2
   2   4  13 47.9452 36.6409   4
   2   4  13 186.812 44.9356   1
   2   4  13 158.294 44.0267   2
   2  -4  14 499.054 59.5087   2
   2   4  14 293.478 50.6301   1
   2   4  14 366.169 56.2347   2
   2   4  15 59.2861 40.6269   1
   2   4  15-15.8751 38.4415   2
   2   4  16 536.033 67.8858   1
   2   4  16 508.490 68.0536   2
   2   4  17 986.112 94.9748   2
   2   4  17 962.597 84.7763   1
   2   4  18 563.130 76.1176   2
   2   4  18 578.395 66.1203   1
   2   4  19 40.3617 40.4977   1
   2   4  19 47.6060 46.3959   2
   2   4  20 16.9570 48.9733   2
   2   4  21 476.106 80.1428   2
  -2   5  24 190.920 82.1644   2
  -2   5  23-41.2673 64.5964   2
  -2   5  22 767.173 118.610   2
  -2   5  21 61.2813 61.7950   2
  -2   5  20 1862.32 161.788   2
  -2   5  19 77.9120 56.1220   2
  -2   5  18 688.067 96.5690   2
  -2   5  17 1096.76 113.128   2
  -2   5  16 4434.80 217.489   2
  -2   5  15-28.8657 54.5194   2
  -2   5  14 4501.96 212.120   4
  -2   5  14 4346.42 204.080   2
  -2   5  13 1766.28 123.611   2
  -2   5  13 1769.02 129.855   4
  -2   5  12 16653.4 413.752   2
  -2   5  12 15855.3 415.435   4
  -2   5  11-25.8321 41.2621   2
  -2   5  11 33.9924 41.3666   4
  -2   5  10 3513.19 156.731   2
  -2   5  10 3383.38 158.749   4
   2  -5  -9 338.605 23.3539   1
  -2   5   9 284.114 53.3324   2
  -2   5   9 318.451 51.8900   4
   2  -5  -8 2247.32 63.3978   1
  -2   5   8 2551.68 122.755   4
  -2   5   8 2436.29 118.727   2
  -2   5   7 2704.40 120.642   2
  -2   5   7 2764.61 122.531   4
  -2   5   6 24088.0 457.096   2
  -2   5   6 23964.0 462.706   4
  -2   5   5 3099.11 116.424   2
   2  -5  -5 3193.71 115.736   3
   2  -5  -5 3183.15 109.351   2
  -2   5   4 54904.3 888.495   3
  -2   5   4 55474.9 881.116   2
   2  -5  -4 55928.0 868.965   2
   2  -5  -4 55800.5 885.516   3
   2  -5  -3 9204.01 192.264   2
  -2   5   3 8705.86 205.408   3
   2  -5  -3 8939.54 203.851   3
  -2   5   3 8859.46 197.923   2
   2  -5  -2 37808.8 605.280   3
   2  -5  -2 37110.2 584.312   2
  -2   5   2 36249.2 592.515   2
  -2   5   2 36980.8 606.814   3
  -2   5   1 39.1811 20.4600   3
   2  -5  -1 44.2664 20.3663   3
  -2   5   1 2.56250 17.4303   2
  -2  -5   1 51.1091 20.9155   1
   2  -5  -1 72.7966 17.4127   2
  -2   5   0 749.453 48.4777   3
  -2  -5   0 681.192 44.4545   1
  -2   5   0 685.914 34.6716   2
   2   5   1 728.359 48.8853   1
  -2  -5  -1 967.643 55.1062   1
  -2   5  -1 868.890 34.1400   2
  -2  -5  -2 27743.5 424.355   3
   2   5   2 28789.6 478.275   1
  -2  -5  -2 28674.5 483.559   1
   2   5   3 35414.0 587.605   1
  -2  -5  -3 35576.5 593.156   1
   2   5   4 28176.5 501.034   1
  -2  -5  -4 29408.0 505.293   1
   2   5   5 4159.52 128.072   1
  -2   5  -5 3597.96 78.9843   2
  -2  -5  -5 3595.20 125.839   1
  -2   5  -6 24242.5 377.011   2
  -2  -5  -6 23739.4 452.275   1
   2   5   6 23232.8 440.576   1
   2   5   7 6098.26 169.725   1
  -2   5  -7 5519.00 121.587   2
   2   5   8 701.368 51.0343   2
   2   5   8 740.399 62.1688   1
  -2   5  -8 660.235 37.3036   2
   2   5   8 708.318 53.1908   4
   2   5   9 1128.39 75.1098   1
  -2   5  -9 1091.43 52.6321   2
   2   5   9 1080.97 65.8672   2
   2   5   9 1122.68 72.1951   4
   2   5  10 10812.2 268.632   4
   2   5  10 10708.6 265.620   1
   2   5  10 10672.3 251.515   2
  -2   5 -10 10582.1 220.598   2
  -2   5 -11 598.311 43.8665   2
   2   5  11 580.643 60.4011   4
   2   5  11 671.557 63.3843   1
   2   5  11 480.182 49.3495   2
  -2   5 -12 4717.94 139.520   2
   2   5  12 4763.47 179.230   4
   2   5  12 5187.98 176.586   1
   2   5  12 4867.73 170.658   2
   2   5  13 198.104 49.8352   1
   2   5  13 71.2623 39.4113   4
   2   5  13 152.207 43.3058   2
   2   5  14 7858.57 236.279   1
   2   5  14 8152.97 246.998   2
   2   5  14 7787.31 259.174   4
   2   5  15 372.723 57.9291   2
   2   5  15 387.483 60.4999   1
   2   5  16 634.184 74.5346   2
   2   5  16 585.206 67.3136   1
   2   5  17 549.461 71.6810   2
   2   5  17 788.849 75.1388   1
   2   5  18 1200.14 109.076   2
   2   5  18 1245.89 97.8691   1
   2   5  19 49.8362 48.4596   2
   2   5  20 1819.41 140.158   2
   2   5  21 163.786 60.9874   2
   2   5  22 302.002 74.8071   2
  -2   6  24-71.7985 74.0310   2
  -2   6  23-44.2830 76.8244   2
  -2   6  22 108.606 81.4919   2
  -2   6  21 43.0433 64.2671   2
  -2   6  20 261.371 82.5640   2
  -2   6  19 42.4440 59.1139   2
  -2   6  18 295.207 75.1741   2
  -2   6  17-116.813 69.6586   2
  -2   6  16 95.5429 54.5252   2
  -2   6  15 27.5136 51.7219   2
  -2   6  15 54.5990 64.5252   4
  -2   6  14 163.141 62.6844   2
  -2   6  14 316.512 79.0762   4
  -2   6  13-74.8132 60.1712   4
  -2   6  13-28.2332 45.9937   2
  -2   6  12 2.38810 43.5694   2
  -2   6  12-10.1462 46.7497   4
  -2   6  11 1125.95 94.1602   2
  -2   6  11 1087.29 96.2083   4
  -2   6  10 784.232 78.2723   2
   2  -6 -10 623.463 35.8227   1
  -2   6  10 786.262 80.1264   4
  -2   6   9 80.9167 37.7544   2
  -2   6   9 58.3875 40.9233   4
   2  -6  -9 78.9692 17.2631   1
  -2   6   8 16.0818 31.2807   2
  -2   6   8 65.5825 35.9035   4
  -2   6   7 2279.05 111.290   2
  -2   6   7 2323.01 113.545   4
  -2   6   6 9733.73 242.502   2
  -2   6   5 63.9493 30.9625   2
  -2   6   5 33.6777 25.7050   3
  -2   6   4 2647.45 107.713   3
   2  -6  -4 2854.59 97.3227   2
  -2   6   4 2728.28 103.312   2
   2  -6  -4 2777.48 105.971   3
   2  -6  -3-9.82937 18.0004   3
   2  -6  -3 8.69939 16.6603   2
  -2   6   3-36.3342 25.6168   2
  -2   6   3 0.03834 26.1794   3
  -2   6   2 11508.1 247.540   3
   2  -6  -2 11973.3 247.628   3
   2  -6  -2 11794.6 225.718   2
  -2   6   2 11594.6 232.260   2
  -2   6   1 34259.1 543.140   2
   2  -6  -1 33474.9 563.217   3
  -2   6   1 34627.3 569.354   3
  -2   6   0 2812.92 97.2985   3
  -2   6   0 2796.14 78.1803   2
  -2  -6   0 3030.15 100.485   1
   2   6   0 2801.32 61.3794   3
  -2  -6  -1 7373.18 176.527   1
  -2   6  -1 7311.80 140.846   2
   2   6   1 7297.05 129.258   3
  -2  -6  -2 425.053 39.9040   1
  -2  -6  -2 515.958 25.0816   3
   2   6   3 14008.9 285.808   1
  -2  -6  -3 14029.4 243.864   3
  -2  -6  -3 13918.0 288.382   1
  -2  -6  -4 1914.99 86.7010   1
  -2  -6  -4 1802.86 66.9249   3
   2   6   4 1818.56 83.4486   1
  -2  -6  -5 911.170 63.2483   1
   2   6   5 894.491 60.7554   1
  -2   6  -6 766.770 36.9364   2
   2   6   6 901.461 61.2482   1
  -2   6  -7 968.163 44.5473   2
   2   6   7 980.045 66.1866   1
  -2   6  -8 2204.21 73.5969   2
   2   6   8 2213.10 102.875   1
   2   6   8 2367.30 93.9973   2
   2   6   9 1677.71 90.2653   4
  -2   6  -9 1640.03 65.9677   2
   2   6   9 1763.62 84.8303   2
   2   6   9 1624.65 91.1186   1
  -2   6 -10-17.4031 15.7503   2
   2   6  10-26.2207 31.0056   2
   2   6  10 41.6154 32.7209   1
   2   6  10-29.5469 30.9193   4
   2   6  11 1104.57 81.5564   1
   2   6  11 989.517 72.8215   2
   2   6  11 1004.64 79.0655   4
  -2   6 -11 1012.10 58.3589   2
   2   6  12-1.34970 31.2805   1
  -2   6 -12-21.6337 20.1875   2
   2   6  12-61.1872 38.7515   2
   2   6  12-47.2328 40.1312   4
   2   6  13 1520.90 106.964   4
   2   6  13 1715.18 104.576   1
   2   6  13 1842.45 108.367   2
   2   6  14 104.150 46.5792   4
   2   6  14 46.4375 37.0196   1
   2   6  14 95.9720 41.2783   2
   2   6  15 298.531 62.8025   4
   2   6  15 231.953 51.9895   1
   2   6  15 242.488 55.6532   2
   2   6  16 1149.13 97.9658   2
   2   6  16 1393.37 98.2549   1
   2   6  17 193.066 54.4653   2
   2   6  17 263.040 51.4141   1
   2   6  18-49.4751 49.1217   2
   2   6  18 11.9928 34.2865   1
   2   6  19 339.745 73.2280   2
   2   6  20-44.1675 54.3023   2
   2   6  21 138.481 60.9750   2
   2   6  22 155.739 64.2436   2
  -2   7  24 19.7292 73.2337   2
  -2   7  23 3.03505 77.3835   2
  -2   7  22 1585.79 161.452   2
  -2   7  21 175.774 80.8892   2
  -2   7  20 1136.32 133.687   2
  -2   7  19 74.1251 58.7740   2
  -2   7  18 1345.53 132.060   2
  -2   7  17-90.4623 70.9149   2
  -2   7  16-87.6653 65.5161   2
  -2   7  16 81.8899 67.4654   4
  -2   7  15 2445.42 165.123   4
  -2   7  15 2454.84 162.392   2
  -2   7  14 12965.2 377.934   2
  -2   7  14 12122.0 377.311   4
  -2   7  13 1043.39 100.539   2
  -2   7  13 969.804 100.401   4
  -2   7  12 9923.13 316.072   4
  -2   7  12 10850.8 318.731   2
  -2   7  11 648.869 78.9266   4
  -2   7  11 801.756 82.8703   2
   2  -7 -11 689.601 41.6855   1
  -2   7  10 11661.6 313.700   2
  -2   7  10 12209.1 324.123   4
   2  -7 -10 10890.3 217.125   1
  -2   7   9 618.660 66.9556   2
  -2   7   9 583.590 68.7632   4
   2  -7  -9 575.256 37.3348   1
  -2   7   8 2564.55 124.119   2
  -2   7   8 2630.19 128.294   4
  -2   7   7 914.529 74.0117   2
  -2   7   6 50353.0 843.692   2
  -2   7   5 9991.38 247.852   3
  -2   7   5 10069.3 240.002   2
   2  -7  -4 35418.0 581.694   2
  -2   7   4 33837.3 593.649   2
  -2   7   4 35283.8 611.312   3
  -2   7   3 4152.29 135.583   3
   2  -7  -3 4197.86 132.566   3
  -2   7   3 4313.30 126.000   2
  -2   7   2 14641.6 298.729   3
   2  -7  -2 14748.5 296.186   3
  -2   7   2 14275.8 276.891   2
  -2   7   1 1775.49 67.7755   2
  -2   7   1 1827.18 81.5408   3
   2  -7  -1 1919.08 79.9728   3
  -2   7   0 851.972 56.3263   3
  -2  -7   0 885.100 55.4881   1
   2   7   0 858.451 33.9323   3
  -2   7   0 969.233 44.9118   2
  -2  -7  -1 8061.29 191.769   1
   2   7   1 7639.57 144.145   3
   2   7   2 2607.44 70.0472   3
  -2  -7  -2 2639.00 68.1921   3
  -2  -7  -2 2496.04 99.4868   1
  -2  -7  -3 5425.82 122.328   3
  -2  -7  -3 5363.70 156.725   1
  -2  -7  -4 23878.4 401.673   3
   2   7   5 17982.5 356.872   1
  -2  -7  -5 18008.4 333.869   3
   2   7   6 36656.6 631.360   1
   2   7   7 655.087 57.7091   1
  -2   7  -7 764.156 41.1512   2
   2   7   8 111.593 32.5207   2
  -2   7  -8 62.2182 17.2535   2
   2   7   8-14.2085 32.0648   1
   2   7   9 681.585 55.2683   2
   2   7   9 555.566 54.8597   1
  -2   7  -9 534.943 39.3441   2
   2   7  10 4562.11 163.826   4
   2   7  10 4969.09 165.117   1
   2   7  10 4719.49 156.470   2
  -2   7 -10 4608.18 132.306   2
   2   7  11 5.36713 31.8631   1
   2   7  11 21.4601 34.3112   4
   2   7  11 37.3335 32.0984   2
  -2   7 -11 1.81094 17.4551   2
   2   7  12 14952.5 344.254   1
   2   7  12 14942.8 345.392   2
   2   7  12 14606.7 359.877   4
  -2   7 -12 14654.2 303.984   2
   2   7  13 501.715 64.0322   4
   2   7  13 487.741 63.7769   2
   2   7  13 496.700 60.1274   1
   2   7  14 6530.00 235.456   4
   2   7  14 6612.66 209.953   1
   2   7  14 6287.34 219.367   2
   2   7  15 188.184 54.7800   2
   2   7  15 68.8226 39.1827   1
   2   7  15 74.0815 48.2813   4
   2   7  16-10.4699 44.7011   4
   2   7  16 48.9737 43.3476   2
   2   7  16 11.3445 34.0137   1
   2   7  17 580.901 69.8085   1
   2   7  17 503.124 75.6127   2
   2   7  18 1409.96 101.501   1
   2   7  18 1234.23 113.991   2
   2   7  19-13.6060 47.7195   2
   2   7  20 509.625 86.0776   2
   2   7  21 17.6141 55.5856   2
   2   7  22 1402.22 135.721   2
  -2   8  24 14.1318 72.1893   2
  -2   8  23-39.4395 72.8785   2
  -2   8  22 176.722 89.6234   2
  -2   8  21 111.218 77.8268   2
  -2   8  20 400.539 90.3545   2
  -2   8  19 354.092 83.6003   2
  -2   8  18 63.8145 69.5052   2
  -2   8  17-22.9406 66.3538   2
  -2   8  17 48.0838 63.9318   4
  -2   8  16 294.385 80.3170   4
  -2   8  16 341.596 73.3107   2
  -2   8  15 524.698 82.9817   2
  -2   8  15 615.496 92.6015   4
  -2   8  14 1323.67 118.679   2
  -2   8  14 1186.28 116.699   4
  -2   8  13-44.3612 51.5357   2
  -2   8  13-30.4282 51.2162   4
  -2   8  12 307.043 67.0762   2
   2  -8 -12 244.604 27.4769   1
  -2   8  12 320.280 66.6665   4
  -2   8  11 512.436 73.4452   2
   2  -8 -11 545.018 40.5868   1
  -2   8  11 519.846 76.0626   4
   2  -8 -10 1731.25 69.7854   1
  -2   8  10 1821.64 115.003   2
  -2   8  10 1633.85 111.636   4
  -2   8   9 59.2547 38.3726   4
  -2   8   9 110.812 41.2848   2
  -2   8   8 3931.66 159.090   2
  -2   8   8 4055.80 163.397   4
  -2   8   7 185.411 46.4524   2
  -2   8   6 10149.3 265.892   3
  -2   8   6 10082.2 253.965   2
  -2   8   5 3516.85 138.329   3
  -2   8   5 3543.93 127.962   2
  -2   8   4 10557.9 258.534   3
  -2   8   4 11093.4 247.114   2
  -2   8   3 1262.44 67.9924   2
  -2   8   3 1222.04 74.4864   3
  -2   8   2 1002.58 56.4698   2
  -2   8   2 1031.08 66.6216   3
  -2   8   1 2187.05 79.0288   2
   2  -8  -1 2135.65 88.3304   3
  -2   8   1 2081.98 91.1277   3
   2   8   0 1590.19 52.0315   3
  -2   8   0 1521.23 77.7183   3
  -2  -8  -1 813.285 55.6527   1
   2   8   1 730.686 35.9600   3
   2   8   2 4908.53 114.605   3
  -2  -8  -2 4982.14 110.180   3
  -2  -8  -3 4337.13 108.094   3
  -2  -8  -4 2216.26 77.3573   3
  -2  -8  -5 6877.69 167.587   3
  -2  -8  -6 528.328 43.8504   3
  -2   8  -7 1105.24 53.4536   2
   2   8   8 2306.05 106.623   1
  -2   8  -8 2318.20 82.2420   2
   2   8   9 935.748 71.7769   1
  -2   8  -9 910.816 53.1509   2
   2   8   9 985.356 66.9764   2
   2   8  10 129.969 37.2133   1
  -2   8 -10 141.219 25.4577   2
   2   8  10 188.024 39.9723   2
   2   8  11 1685.07 95.3086   2
  -2   8 -11 1447.37 74.6234   2
   2   8  11 1705.48 101.750   1
   2   8  11 1735.23 104.800   4
   2   8  12 151.542 38.4219   2
   2   8  12 240.827 48.2082   1
  -2   8 -12 153.220 28.6381   2
   2   8  12 182.949 48.3651   4
   2   8  13 24.8031 37.0852   1
   2   8  13-32.6832 39.2474   2
   2   8  13 51.1630 45.3197   4
   2   8  14 44.4004 37.9126   1
   2   8  14 80.8527 47.9110   4
   2   8  14 103.189 45.4664   2
   2   8  15 34.2174 41.7824   2
   2   8  15 4.14136 40.7923   4
   2   8  16 1020.74 102.932   4
   2   8  16 1106.89 99.1185   2
   2   8  17 37.4608 45.1888   2
   2   8  17 98.5451 57.5586   4
   2   8  18 320.319 70.1896   2
   2   8  19 20.9935 49.3336   2
   2   8  20-22.6875 56.2686   2
   2   8  21 6.00369 52.2515   2
   2   8  22 9.06072 52.9770   2
  -2   9  23 247.794 93.4492   2
  -2   9  22 889.924 128.141   2
  -2   9  21 250.619 78.1731   2
  -2   9  20 1104.35 129.656   2
  -2   9  19 93.1385 70.2518   2
  -2   9  18 445.620 82.1027   2
  -2   9  18 612.638 107.614   4
  -2   9  17 314.101 77.1040   2
  -2   9  17 379.804 86.5779   4
  -2   9  16 138.404 65.9324   4
  -2   9  16 40.0030 48.4730   2
  -2   9  15 553.234 87.8131   2
  -2   9  15 498.720 86.6062   4
  -2   9  14 1872.55 139.959   4
  -2   9  14 1586.38 127.060   2
  -2   9  13 990.315 101.594   2
   2  -9 -13 899.410 55.2395   1
  -2   9  13 955.731 101.322   4
  -2   9  12 12942.9 357.091   2
   2  -9 -12 11698.5 250.400   1
  -2   9  12 12977.8 366.517   4
  -2   9  11 813.994 87.1478   4
  -2   9  11 989.347 94.3222   2
   2  -9 -11 897.345 55.0031   1
  -2   9  10 2401.72 138.342   4
   2  -9 -10 2338.60 89.5207   1
  -2   9  10 2414.69 135.103   2
  -2   9   9 2603.52 133.969   2
  -2   9   9 2314.32 131.057   4
  -2   9   8 689.597 72.5931   2
  -2   9   7 0.34981 31.3655   2
  -2   9   6 26628.7 530.956   3
  -2   9   6 27504.4 515.956   2
  -2   9   5 47.5713 34.4446   3
  -2   9   5 24.9075 27.7814   2
  -2   9   4 45288.1 758.181   2
  -2   9   4 46651.6 786.531   3
  -2   9   3-15.9086 35.0625   3
  -2   9   3 0.83424 20.9167   2
  -2   9   2 14066.4 276.334   2
  -2   9   2 13308.6 300.957   3
  -2   9   1 31.8625 25.5879   3
  -2   9   1 65.2456 24.3666   2
   2   9   0 10.9545 14.3099   3
  -2   9   0 32.5168 29.9055   3
   2   9   1 108.636 17.8199   3
  -2   9  -1 171.316 38.6032   3
   2   9   2 283.640 27.1809   3
  -2  -9  -2 250.759 24.1471   3
   2   9   3 10750.4 219.859   3
  -2  -9  -3 11602.2 218.611   3
  -2  -9  -4 21404.3 375.112   3
  -2  -9  -5 7652.52 182.015   3
  -2  -9  -6 23270.1 426.877   3
  -2   9  -8 102.420 23.5765   2
  -2   9  -9 1163.71 62.5313   2
   2   9   9 1180.78 78.6818   2
   2   9  10 4849.96 164.816   2
  -2   9 -10 4509.86 139.083   2
   2   9  11-4.97319 32.2345   2
  -2   9 -11 1.68259 22.7502   2
   2   9  11-47.0511 42.2311   4
  -2   9 -12 11481.5 270.248   2
   2   9  12 12760.6 316.476   2
   2   9  12 12378.1 327.795   4
   2   9  13 40.0287 40.8089   4
   2   9  13-48.5702 42.5896   2
   2   9  14 4059.38 184.911   4
   2   9  14 3677.35 169.272   2
   2   9  15 1076.02 97.0225   2
   2   9  15 859.864 92.3032   4
   2   9  16 311.871 67.7485   4
   2   9  16 446.548 73.5723   2
   2   9  17 511.280 80.7546   4
   2   9  17 585.568 82.8745   2
   2   9  18 431.605 72.8661   2
   2   9  18 482.212 82.1796   4
   2   9  19-0.05774 46.7219   2
   2   9  20 863.211 107.326   2
   2   9  21 18.9565 49.4301   2
   2   9  22 152.034 66.0992   2
   2   9  23-12.3356 55.4991   2
  -2  10  23-168.503 84.1663   2
  -2  10  22-27.5008 76.1777   2
  -2  10  21 19.8157 70.8540   2
  -2  10  20 78.7435 69.5865   2
  -2  10  19 192.638 70.1386   2
  -2  10  19 130.360 69.1500   4
  -2  10  18 2397.25 186.147   4
  -2  10  18 2034.46 166.534   2
  -2  10  17 146.394 70.5261   4
  -2  10  17-7.54501 65.0372   2
  -2  10  16 1513.63 136.369   2
  -2  10  16 1437.17 135.743   4
  -2  10  15 481.261 83.6188   2
  -2  10  15 451.459 86.4305   4
  -2  10  14 133.892 62.7232   2
  -2  10  14 97.6123 56.1731   4
  -2  10  13 32.0116 52.5227   2
   2 -10 -13-2.53085 21.9033   1
  -2  10  13-39.4135 55.2473   4
  -2  10  12 26.0990 48.8286   2
   2 -10 -12 63.9501 25.5351   1
  -2  10  12-11.5746 52.1268   4
  -2  10  11 1737.42 121.875   2
  -2  10  11 1717.00 123.863   4
   2 -10 -11 1602.72 78.6472   1
  -2  10  10 8147.08 268.148   4
   2 -10 -10 8083.89 195.690   1
  -2  10  10 8150.22 262.701   2
  -2  10   9 1069.56 91.6849   2
  -2  10   8 12712.5 320.755   2
  -2  10   7 633.428 69.8942   3
  -2  10   7 541.122 59.7913   2
  -2  10   6 4691.12 174.283   3
  -2  10   6 4706.18 163.401   2
  -2  10   5 1658.34 99.4040   3
  -2  10   5 1544.91 87.6457   2
  -2  10   4 384.196 52.6800   3
  -2  10   4 334.184 41.7889   2
  -2  10   3 92.2066 32.2982   3
  -2  10   3 199.291 37.2413   2
  -2  10   2 11712.6 277.797   3
  -2  10   2 11547.6 249.337   2
  -2  10   1 12447.0 285.523   3
   2  10   0 14444.7 266.978   3
  -2  10   0 15087.6 319.216   3
  -2  10  -1 1921.64 93.8821   3
   2  10   1 1857.75 68.7705   3
   2  10   2 4940.34 123.846   3
  -2 -10  -2 4638.06 116.446   3
  -2 -10  -3 6509.96 150.590   3
   2  10   3 6452.70 156.713   3
  -2 -10  -4 442.914 35.9834   3
  -2 -10  -5 501.711 40.2421   3
  -2 -10  -6 1343.38 72.1582   3
   2  10   9 502.263 56.2502   2
  -2  10  -9 365.044 39.2425   2
  -2  10 -10 3343.31 120.157   2
   2  10  10 3660.36 143.708   2
   2  10  11 171.610 42.5312   2
  -2  10 -11 153.090 31.8367   2
   2  10  12-34.0881 41.4298   2
   2  10  12-5.64215 37.8307   4
   2  10  13-31.5681 46.1867   4
   2  10  13-30.8429 38.2624   2
   2  10  14 137.302 49.0994   4
   2  10  14 110.731 43.6752   2
   2  10  15 6986.21 263.625   4
   2  10  15 7087.87 251.883   2
   2  10  16 2706.76 165.825   4
   2  10  16 2491.91 152.112   2
   2  10  17 908.341 99.5153   2
   2  10  17 795.289 100.456   4
   2  10  18 1150.32 114.445   2
   2  10  18 1248.76 123.422   4
   2  10  19 38.0957 47.7202   2
   2  10  19 7.18525 50.9815   4
   2  10  20 13.0982 52.5346   2
   2  10  21 60.2003 56.6450   2
   2  10  22-67.8155 58.7173   2
   2  10  23-99.0170 71.2747   2
  -2  11  23-186.201 95.6121   2
  -2  11  22 162.114 70.9025   2
  -2  11  21-56.3435 68.4435   2
  -2  11  20 1145.19 140.261   2
  -2  11  20 1150.09 148.620   4
  -2  11  19 116.115 73.4479   2
  -2  11  19 79.1169 73.9249   4
  -2  11  18 79.9840 61.1275   4
  -2  11  18-50.5956 69.0800   2
  -2  11  17 307.991 82.0569   2
  -2  11  17 348.818 82.9346   4
  -2  11  16 490.678 94.9683   4
  -2  11  16 474.735 90.6598   2
  -2  11  15 419.742 80.9487   2
  -2  11  15 479.393 87.0733   4
  -2  11  14 2042.89 154.968   4
  -2  11  14 2015.24 146.100   2
  -2  11  13 1956.71 141.792   4
  -2  11  13 2097.85 144.694   2
  -2  11  12 3196.93 176.769   4
  -2  11  12 3366.16 174.619   2
  -2  11  11 353.917 71.8302   2
  -2  11  11 191.300 53.7660   4
  -2  11  10 139.041 54.4474   2
  -2  11   9 138.158 47.3054   2
  -2  11   8 2222.49 122.698   2
  -2  11   7 39.2290 40.2213   3
  -2  11   7-20.9391 36.9115   2
  -2  11   6 5699.80 184.848   2
  -2  11   6 5707.34 199.825   3
  -2  11   5 4579.90 156.775   2
  -2  11   5 4748.79 174.011   3
  -2  11   4 20884.0 436.486   3
  -2  11   4 20564.5 407.168   2
  -2  11   3 927.220 71.4601   3
  -2  11   3 993.850 65.6062   2
  -2  11   2 2977.22 124.460   3
  -2  11   2 2962.66 108.162   2
  -2  11   1 101.526 35.1899   3
  -2  11   0 37.7288 33.2032   3
   2  11   0 43.5313 20.2083   3
   2  11   1 1244.40 59.5898   3
  -2  11  -1 1336.40 82.4586   3
   2  11   2 177.295 25.0267   3
  -2 -11  -3 1147.44 56.3888   3
   2  11   3 1184.27 61.3527   3
  -2 -11  -4 11757.5 245.134   3
  -2 -11  -5 247.436 30.2143   3
  -2  11  -9 8.58335 19.3511   2
  -2  11 -10 1856.17 89.2086   2
   2  11  10 2060.95 109.566   2
   2  11  11 39.9690 35.0693   2
   2  11  12 1696.14 108.288   2
   2  11  13 1045.28 94.7342   4
   2  11  13 1262.10 97.5084   2
   2  11  14 1236.36 107.836   4
   2  11  14 1099.49 96.3616   2
   2  11  15 468.977 77.5215   4
   2  11  15 320.848 62.4201   2
   2  11  16 178.414 59.9549   2
   2  11  16 124.020 59.9981   4
   2  11  17 241.410 66.7869   2
   2  11  17 241.668 63.1425   4
   2  11  18 349.133 80.5558   4
   2  11  18 449.760 82.9460   2
   2  11  19-62.3677 52.9167   4
   2  11  19-38.5558 54.9713   2
   2  11  20 340.107 79.4326   4
   2  11  20 282.173 69.6343   2
   2  11  21 7.16875 56.3680   2
   2  11  22 127.895 62.0075   2
   2  11  23 79.9230 69.9104   2
  -2  12  22 83.4201 83.9170   2
  -2  12  21 69.5635 67.6647   2
  -2  12  20-27.3682 64.4265   2
  -2  12  20-8.76010 58.4603   4
  -2  12  19-85.3703 69.3284   2
  -2  12  19 23.9347 69.5416   4
  -2  12  18 1884.65 163.909   2
  -2  12  18 2190.61 180.817   4
  -2  12  17 849.348 115.039   2
  -2  12  17 692.067 110.700   4
  -2  12  16 3776.53 217.174   2
  -2  12  16 3866.09 222.326   4
  -2  12  15 115.553 63.5625   4
  -2  12  15 97.4307 63.3050   2
  -2  12  14 848.415 103.789   2
  -2  12  14 700.170 93.3051   4
  -2  12  13 943.658 100.546   2
  -2  12  13 988.892 109.548   4
  -2  12  12 655.017 87.5464   2
  -2  12  12 588.310 82.2696   4
  -2  12  11 61.9001 45.0576   2
  -2  12  11 80.4999 52.1498   4
  -2  12  10 9761.38 297.922   2
  -2  12   9 3349.33 155.144   2
  -2  12   8 16499.2 391.012   2
  -2  12   7 2568.97 136.904   3
  -2  12   7 2347.11 121.341   2
  -2  12   6 4903.41 173.259   2
  -2  12   6 5233.37 191.523   3
  -2  12   5 2813.32 123.210   2
  -2  12   5 2802.62 135.532   3
  -2  12   4 373.463 53.7711   3
  -2  12   4 463.801 53.0059   2
  -2  12   3 7818.62 229.890   3
  -2  12   3 7996.66 206.913   2
  -2  12   2 5371.65 181.705   3
  -2  12   1-4.24118 32.0694   3
   2  12  -1 32.9835 20.5315   3
  -2  12   0 39667.7 695.882   3
   2  12   0 38812.3 634.682   3
   2  12   1 2679.52 95.2845   3
  -2  12  -1 3007.27 123.806   3
   2  12   2 19658.2 363.770   3
   2  12   3 48.7746 18.9246   3
  -2 -12  -3 62.2242 20.3704   3
  -2 -12  -4 413.836 38.1218   3
   2  12   4 442.948 42.5315   3
  -2 -12  -5 94.9056 22.0808   3
   2  12  10 3543.86 148.525   2
   2  12  11 34.0726 38.1695   2
   2  12  12 32.9764 38.7179   2
   2  12  13-27.4318 42.8111   4
   2  12  13 1.94862 37.5548   2
   2  12  14 388.682 63.6845   2
   2  12  14 426.509 72.6642   4
   2  12  15 11.0055 50.7452   2
   2  12  15 147.496 51.8844   4
   2  12  16 1301.55 124.076   4
   2  12  16 1402.46 118.488   2
   2  12  17 348.144 78.2396   2
   2  12  17 274.217 70.8319   4
   2  12  18 1383.50 132.790   4
   2  12  18 1353.71 125.291   2
   2  12  19 305.416 76.6123   2
   2  12  19 203.267 68.1182   4
   2  12  20 343.870 80.2590   2
   2  12  20 230.051 71.9753   4
   2  12  21 69.7265 51.9390   2
   2  12  21-61.5804 69.3812   4
   2  12  22 25.9451 57.9514   2
   2  12  23 31.2127 62.2793   2
  -2  13  22-195.225 98.8885   2
  -2  13  21 31.5636 69.4093   2
  -2  13  21 104.452 82.2910   4
  -2  13  20 434.611 111.539   4
  -2  13  20 241.350 87.2867   2
  -2  13  19-33.9930 64.7441   2
  -2  13  19 65.3479 72.3341   4
  -2  13  18 196.914 76.2520   2
  -2  13  18 227.476 82.5466   4
  -2  13  17 11.9331 57.8571   2
  -2  13  17 17.7310 61.8100   4
  -2  13  16 160.482 78.7243   4
  -2  13  16 122.051 60.8525   2
  -2  13  15 477.357 86.1816   2
  -2  13  15 525.311 94.6681   4
  -2  13  14 38.4167 54.6728   2
  -2  13  14 7.05709 57.9923   4
  -2  13  13 1652.60 134.484   4
  -2  13  13 1819.12 140.026   2
  -2  13  12 457.842 79.3853   2
  -2  13  12 298.167 65.3874   4
  -2  13  11 1252.64 109.277   2
  -2  13  10 707.468 82.0928   2
  -2  13   9 90.0647 43.3357   2
  -2  13   8 9.04805 47.1010   2
  -2  13   8 166.267 59.7197   3
  -2  13   7 413.186 65.7604   3
  -2  13   7 301.460 53.8673   2
  -2  13   6 75.5896 38.9610   3
  -2  13   6 123.622 39.3284   2
  -2  13   5 151.375 42.1799   3
  -2  13   5 139.988 38.7035   2
  -2  13   4 758.359 65.9799   2
  -2  13   4 713.464 73.4233   3
  -2  13   3 6096.49 204.923   3
  -2  13   3 6179.43 182.914   2
  -2  13   2 839.563 75.4080   3
  -2  13   1 2048.28 110.081   3
   2  13  -1 2024.90 83.7811   3
  -2  13   0 591.120 64.8762   3
   2  13   0 575.483 46.4607   3
   2  13   1 4450.55 134.464   3
  -2  13  -1 4949.88 169.305   3
   2  13   2 16.8045 24.9297   3
   2  13   3 57.5416 21.6272   3
  -2 -13  -3 86.2546 23.1189   3
  -2 -13  -4 81.0353 23.6821   3
   2  13   4 70.0023 24.4188   3
   2  13  10 145.613 48.3884   2
   2  13  11 123.543 48.4332   2
   2  13  12 201.590 52.2739   2
   2  13  13-3.60515 40.3048   2
   2  13  14-83.6402 54.7626   4
   2  13  14-22.9852 44.7359   2
   2  13  15 55.5369 49.2028   4
   2  13  15 30.3717 46.4346   2
   2  13  16 194.544 62.4377   2
   2  13  16 206.768 63.6873   4
   2  13  17 617.202 90.2010   2
   2  13  17 595.910 92.3365   4
   2  13  18-17.3363 53.7000   2
   2  13  18 70.5395 59.8874   4
   2  13  19 196.890 74.1436   2
   2  13  19 104.604 61.4163   4
   2  13  20 39.8019 56.5349   2
   2  13  20 100.773 66.2901   4
   2  13  21 139.253 66.6852   4
   2  13  21 35.2478 57.3147   2
   2  13  22-82.2882 77.3537   2
   2  13  23-19.1949 59.6623   2
  -2  14  21-59.5825 76.8659   2
  -2  14  21-17.0900 74.0416   4
  -2  14  20 239.804 89.8656   2
  -2  14  20 343.414 94.1002   4
  -2  14  19 314.128 88.1874   4
  -2  14  19 249.183 86.6202   2
  -2  14  18 1724.76 161.758   2
  -2  14  18 1630.39 161.718   4
  -2  14  17-22.5435 62.7701   2
  -2  14  17 4.75654 64.1316   4
  -2  14  16 1363.34 136.521   2
  -2  14  16 1183.82 130.247   4
  -2  14  15 126.722 78.2019   4
  -2  14  15 36.6935 57.8847   2
  -2  14  14 2409.47 170.460   4
  -2  14  14 2486.55 168.906   2
  -2  14  13 0.05472 51.1360   2
  -2  14  13-11.0344 54.6236   4
  -2  14  12 323.573 73.9503   2
  -2  14  12 253.059 71.2198   4
  -2  14  11 192.701 60.6667   2
  -2  14  10 8723.12 286.998   2
  -2  14   9 140.867 50.1221   2
  -2  14   8 16737.1 422.798   3
  -2  14   8 16326.0 399.872   2
  -2  14   7 2950.20 153.445   3
  -2  14   7 2787.97 136.801   2
  -2  14   6 12226.8 309.350   2
  -2  14   6 12342.5 335.594   3
  -2  14   5 831.532 79.9399   3
  -2  14   5 910.957 74.9669   2
  -2  14   4 71.2629 38.5933   2
  -2  14   4-1.03443 35.4475   3
  -2  14   3 3454.53 135.587   2
  -2  14   3 3373.70 150.285   3
  -2  14   2 8918.06 256.596   3
   2  14  -1 4712.94 140.983   3
  -2  14   1 4829.11 176.708   3
  -2  14   0 16947.6 385.756   3
   2  14   0 17045.8 335.690   3
   2  14   1 907.372 59.4535   3
  -2  14  -1 833.870 73.5817   3
   2  14   2 14782.2 309.100   3
  -2  14  -2 15050.7 347.185   3
   2  14   3-0.43750 24.1875   3
   2  14   4 63.3533 26.4000   3
   2  14  10 4567.39 177.449   2
   2  14  11 971.496 86.5260   2
   2  14  12 35.7814 43.6027   2
   2  14  13-23.3378 41.3070   2
   2  14  14 2172.12 139.993   2
   2  14  14 2062.31 144.336   4
   2  14  15 470.548 76.8217   4
   2  14  15 406.847 67.6336   2
   2  14  16 3096.53 185.070   4
   2  14  16 3041.75 177.889   2
   2  14  17 1097.53 114.142   2
   2  14  17 805.694 106.747   4
   2  14  18 1539.49 143.439   4
   2  14  18 1550.68 138.114   2
   2  14  19 102.015 59.8653   2
   2  14  19 124.322 62.6797   4
   2  14  20 245.458 73.6603   2
   2  14  20 175.386 77.4384   4
   2  14  21 5.29636 60.8743   4
   2  14  21 127.098 68.8720   2
   2  14  22 434.256 95.8377   2
   2  14  22 310.668 87.1985   4
   2  14  23-54.4770 73.5589   2
  -2  15  21 1.01461 73.0063   2
  -2  15  21 40.7091 71.0610   4
  -2  15  20 326.431 97.8134   2
  -2  15  20 248.112 88.3653   4
  -2  15  19 21.8629 67.2917   2
  -2  15  19-75.5360 78.4666   4
  -2  15  18 61.2934 74.7688   2
  -2  15  18-31.6472 75.0176   4
  -2  15  17 49.5431 60.9261   4
  -2  15  17 14.0852 64.9615   2
  -2  15  16 60.9894 61.3182   2
  -2  15  16 76.6345 78.1861   4
  -2  15  15 321.784 83.2953   2
  -2  15  15 329.291 76.3864   4
  -2  15  14 294.536 78.8303   4
  -2  15  14 260.625 72.6259   2
  -2  15  13 504.180 89.9192   2
  -2  15  13 664.531 100.579   4
  -2  15  12 2630.46 164.576   2
  -2  15  11 1836.00 130.931   2
  -2  15  10 29.8778 48.7223   2
  -2  15   9 24.3100 46.3743   2
  -2  15   8 117.003 59.7716   3
  -2  15   8 27.9664 42.0112   2
  -2  15   7 132.334 47.4472   2
  -2  15   7 82.3089 51.7662   3
  -2  15   6 467.528 63.6617   2
  -2  15   6 440.652 69.8902   3
  -2  15   5 409.909 63.0265   3
  -2  15   5 596.340 66.9106   2
  -2  15   4 195.845 45.8039   3
  -2  15   4 329.541 51.2470   2
  -2  15   3 150.743 42.5862   2
  -2  15   3 46.8656 41.1432   3
  -2  15   2 867.270 78.6133   3
  -2  15   1 741.084 75.1708   3
   2  15  -1 943.964 62.2348   3
  -2  15   0 1752.62 107.356   3
   2  15   0 1624.93 82.8706   3
   2  15   1 8537.89 216.906   3
  -2  15  -1 8939.08 255.953   3
  -2  15  -2 320.503 54.0996   3
   2  15   2 379.282 44.6974   3
   2  15   3 1135.77 71.5665   3
   2  15   4 3779.08 139.705   3
   2  15   5 415.576 51.0089   3
   2  15  11 735.874 82.7478   2
   2  15  12 1191.91 101.113   2
   2  15  13 141.918 49.1868   2
   2  15  14 113.358 50.5548   2
   2  15  15 644.187 92.0120   4
   2  15  15 483.558 76.4368   2
   2  15  16 171.621 57.4465   2
   2  15  16 198.415 64.3873   4
   2  15  17 158.699 64.4932   4
   2  15  17 145.860 62.2697   2
   2  15  18 8.74909 52.9474   4
   2  15  18 22.7165 55.5134   2
   2  15  19 322.152 78.9132   2
   2  15  19 393.864 86.9188   4
   2  15  20 410.580 93.0645   2
   2  15  20 279.321 83.1281   4
   2  15  21-21.6186 59.8630   4
   2  15  21 58.6769 39.8452   2
   2  15  22-17.8510 60.9506   2
   2  15  22 64.1793 70.2785   4
   2  15  23-58.0071 74.5297   2
  -2  16  20-3.23613 76.9542   4
  -2  16  20 3.99823 72.3306   2
  -2  16  19 99.8929 80.9410   2
  -2  16  19-56.6164 80.4161   4
  -2  16  18 854.578 128.893   2
  -2  16  18 684.875 112.165   4
  -2  16  17-67.3180 72.6417   2
  -2  16  17 0.86466 63.3297   4
  -2  16  16 2088.50 171.553   2
  -2  16  16 2140.61 175.279   4
  -2  16  15 478.135 91.2647   2
  -2  16  15 412.931 90.9246   4
  -2  16  14 279.253 80.2386   2
  -2  16  14 131.201 67.6999   4
  -2  16  13 232.765 72.3689   2
  -2  16  13 80.1908 62.7014   4
  -2  16  12 12.3755 49.9595   2
  -2  16  11-80.5170 57.8535   2
  -2  16  10 1920.57 136.620   2
  -2  16   9-11.9846 55.7855   2
  -2  16   8 12595.5 369.880   3
  -2  16   8 12942.0 349.835   2
  -2  16   7 1250.14 97.0999   2
  -2  16   7 1238.33 106.064   3
  -2  16   6 1502.54 112.665   3
  -2  16   6 1565.02 103.118   2
  -2  16   5 513.551 63.0436   2
  -2  16   5 364.427 64.2714   3
  -2  16   4 474.188 67.6688   3
  -2  16   4 658.872 69.3388   2
  -2  16   3 1701.21 113.568   3
  -2  16   2 9189.87 274.734   3
   2  16  -2 8939.81 227.128   3
  -2  16   1 2404.93 130.999   3
   2  16  -1 2372.70 104.562   3
  -2  16   0 12962.8 334.744   3
   2  16   0 12626.4 287.738   3
   2  16   1 784.278 60.3914   3
  -2  16  -1 833.714 80.4256   3
  -2  16  -2 7857.06 242.777   3
   2  16   2 7654.94 211.304   3
   2  16   3 222.306 38.3278   3
   2  16   4 46.2314 30.2032   3
   2  16   5 203.265 40.1118   3
   2  16  11 2930.83 154.411   2
   2  16  12 300.085 63.7008   2
   2  16  13 52.3795 46.7102   2
   2  16  14 742.040 89.8436   2
   2  16  15 32.1712 52.4647   4
   2  16  15-95.8435 56.9724   2
   2  16  16 1930.37 153.884   4
   2  16  16 1847.92 143.363   2
   2  16  17 223.133 76.7627   4
   2  16  17 76.6922 56.7816   2
   2  16  18 626.205 102.318   4
   2  16  18 629.168 100.472   2
   2  16  19 448.508 87.8601   2
   2  16  19 379.692 89.8060   4
   2  16  20-55.9064 64.1596   2
   2  16  20 61.9026 65.5334   4
   2  16  21-11.3539 60.3604   2
   2  16  21 54.1123 68.9678   4
   2  16  22 121.622 75.4652   4
   2  16  22 17.0035 59.6441   2
  -2  17  20 771.580 127.570   2
  -2  17  20 847.968 139.197   4
  -2  17  19 93.0056 79.2128   4
  -2  17  19 160.305 84.9825   2
  -2  17  18 147.947 81.8345   2
  -2  17  18 97.7982 66.4331   4
  -2  17  17-59.6906 68.7838   4
  -2  17  17-50.0027 72.1400   2
  -2  17  16 266.975 90.0160   2
  -2  17  16 261.740 84.2276   4
  -2  17  15 32.1766 60.3185   2
  -2  17  15 37.4644 63.3062   4
  -2  17  14 1947.44 160.530   4
  -2  17  14 2256.50 167.545   2
  -2  17  13 575.351 97.0192   2
  -2  17  12 3446.45 194.464   2
  -2  17  11 489.379 78.8687   2
  -2  17  10 87.7585 52.2918   2
  -2  17   9 167.505 57.1279   2
  -2  17   8 438.424 81.8069   3
  -2  17   8 258.918 59.1841   2
  -2  17   7 216.244 55.2499   2
  -2  17   7 255.823 62.1409   3
  -2  17   6 808.211 83.0117   3
  -2  17   6 758.048 78.3564   2
  -2  17   5 1811.84 112.632   2
  -2  17   5 1643.23 119.575   3
  -2  17   4 9226.34 262.749   2
  -2  17   4 9344.86 292.229   3
  -2  17   3 2147.67 131.544   3
  -2  17   2 1690.63 114.679   3
   2  17  -2 1759.65 94.1966   3
   2  17  -1 940.096 69.5410   3
  -2  17   1 880.980 86.3262   3
   2  17   0 135.483 33.7158   3
  -2  17   0 189.701 51.2292   3
  -2  17  -1 3136.59 150.415   3
   2  17   1 2829.53 121.270   3
   2  17   2 6300.79 194.720   3
  -2  17  -2 6902.14 229.981   3
   2  17   3 1636.89 94.9101   3
  -2  17  -3 1863.59 116.725   3
   2  17   4 12494.5 305.067   3
   2  17   5 14.2693 34.4169   3
   2  17  11 216.284 66.0178   2
   2  17  12 1904.08 132.398   2
   2  17  13 392.377 71.8179   2
   2  17  14 884.193 99.4642   2
   2  17  15 26.7567 49.9605   4
   2  17  15-10.6119 58.9790   2
   2  17  16 72.9164 59.7173   4
   2  17  16-43.4477 52.6029   2
   2  17  17 198.785 70.9907   4
   2  17  17 145.694 59.2609   2
   2  17  18 75.6931 65.2478   4
   2  17  18 47.7602 63.5175   2
   2  17  19 208.914 74.6315   2
   2  17  19 74.6831 64.8626   4
   2  17  20 297.866 86.5957   2
   2  17  20 39.6270 80.7028   4
   2  17  21 48.8807 66.8181   2
   2  17  21 17.2920 69.4850   4
   2  17  22 203.063 80.6681   4
  -2  18  19-45.9935 80.7397   2
  -2  18  19-38.4728 71.6267   4
  -2  18  18 545.162 107.803   2
  -2  18  18 645.837 110.841   4
  -2  18  17 140.391 75.0249   2
  -2  18  17 161.958 86.9551   4
  -2  18  16 652.456 106.693   4
  -2  18  16 645.007 109.891   2
  -2  18  15 245.635 84.7057   2
  -2  18  15 61.0148 69.0077   4
  -2  18  14 143.330 69.1252   2
  -2  18  14 118.418 54.7468   4
  -2  18  13 199.848 78.6331   2
  -2  18  12 12.0907 58.9125   2
  -2  18  11 22.0291 54.4164   2
  -2  18  10 1648.72 128.054   2
  -2  18   9 69.4759 56.4381   3
  -2  18   9 59.7910 47.6024   2
  -2  18   8 2649.52 162.792   3
  -2  18   8 2725.67 149.168   2
  -2  18   7 72.7242 45.9020   3
  -2  18   7 100.844 45.6444   2
  -2  18   6 788.869 87.4240   3
  -2  18   6 880.424 86.9436   2
  -2  18   5 14.4290 44.4677   3
  -2  18   5 67.2150 41.8209   2
  -2  18   4-7.19683 46.3638   3
  -2  18   4 186.576 55.5389   2
  -2  18   3 26.0705 42.3940   3
  -2  18   2 3423.98 166.032   3
   2  18  -2 3392.74 134.830   3
   2  18  -1 1948.73 101.151   3
  -2  18   1 1948.52 124.470   3
  -2  18   0 1486.25 109.326   3
   2  18   0 1503.17 90.5378   3
   2  18   1 1380.73 86.1875   3
  -2  18  -1 1393.25 108.062   3
  -2  18  -2 540.827 75.1920   3
   2  18   2 457.174 55.1916   3
   2  18   3 1230.71 85.7717   3
  -2  18  -3 1437.83 109.741   3
   2  18   4 144.022 43.3042   3
   2  18   5 66.4457 34.3591   3
   2  18  11 51.3685 49.1833   2
   2  18  12 415.201 72.0635   2
   2  18  13 962.705 101.597   2
   2  18  14 895.410 102.497   2
   2  18  15 82.8699 60.7966   2
   2  18  16 969.286 117.661   4
   2  18  16 811.174 106.165   2
   2  18  17 58.9253 60.4732   2
   2  18  17 114.623 64.1731   4
   2  18  18 416.309 91.9131   4
   2  18  18 383.199 80.4388   2
   2  18  19 212.638 79.9331   4
   2  18  19 270.327 84.4268   2
   2  18  20 64.5358 63.0005   2
   2  18  20-115.598 73.1959   4
   2  18  21 83.4700 74.3464   2
   2  18  21 88.4968 68.8828   4
  -2  19  19 136.369 76.1464   2
  -2  19  19 87.4173 89.1561   4
  -2  19  18 243.660 85.0774   4
  -2  19  18 286.835 86.2608   2
  -2  19  17 70.0420 59.6482   2
  -2  19  17 39.5810 77.2671   4
  -2  19  16 283.883 90.9416   4
  -2  19  16 157.950 68.7665   2
  -2  19  15 256.644 83.3121   4
  -2  19  15 393.006 88.9156   2
  -2  19  14 1221.67 133.161   4
  -2  19  14 1309.03 135.891   2
  -2  19  13 1671.83 143.999   2
  -2  19  12 2841.78 183.776   2
  -2  19  11 29.1217 56.2533   2
  -2  19  10 2112.88 147.118   2
  -2  19   9 707.855 86.6000   2
  -2  19   9 719.868 94.4479   3
  -2  19   8-11.9455 48.2672   2
  -2  19   8-38.2683 57.6916   3
  -2  19   7 1033.75 106.376   3
  -2  19   7 1172.65 101.308   2
  -2  19   6 6660.24 239.328   2
  -2  19   6 6880.79 262.985   3
  -2  19   5 793.820 89.3141   3
  -2  19   5 1000.52 91.6360   2
  -2  19   4 5227.57 218.743   3
  -2  19   4 5123.16 194.644   2
   2  19  -3 3248.47 139.701   3
  -2  19   3 3008.12 164.376   3
  -2  19   2 3628.87 176.835   3
   2  19  -2 3780.36 149.816   3
   2  19  -1-6.69699 30.7561   3
  -2  19   1-60.5141 46.4762   3
  -2  19   0 311.229 59.5028   3
   2  19   0 343.228 48.0041   3
  -2  19  -1 201.447 57.1901   3
   2  19   1 132.838 36.0196   3
  -2  19  -2 8830.99 282.583   3
   2  19   2 8861.17 250.381   3
  -2  19  -3 1224.11 104.469   3
   2  19   3 1024.72 81.2216   3
   2  19   4 15169.4 362.955   3
   2  19   5 21.9524 35.0535   3
   2  19  11 1772.23 129.701   2
   2  19  12 1590.64 127.693   2
   2  19  13 51.6148 57.6728   2
   2  19  14 2091.65 151.760   2
   2  19  15 37.3810 53.1984   2
   2  19  16 116.520 65.1050   4
   2  19  16 179.768 64.7354   2
   2  19  17-9.53763 64.1320   2
   2  19  17 50.7999 62.7161   4
   2  19  18 356.432 90.8172   4
   2  19  18 326.892 83.0182   2
   2  19  19 1.97386 62.9028   4
   2  19  19 118.300 71.6716   2
   2  19  20 602.509 108.335   2
   2  19  20 737.572 121.691   4
   2  19  21-13.2111 67.0899   4
  -2  20  18 13.6573 65.5947   2
  -2  20  18 14.0346 65.1566   4
  -2  20  17 141.170 81.0112   2
  -2  20  17 136.967 74.0152   4
  -2  20  16 12.4117 63.0225   2
  -2  20  16 7.63805 69.6269   4
  -2  20  15 12.4027 64.1061   4
  -2  20  15 91.4561 67.2384   2
  -2  20  14 143.267 71.1050   2
  -2  20  13-4.07465 54.3877   2
  -2  20  12-81.5757 66.0321   2
  -2  20  11-31.8065 51.3470   2
  -2  20  10 7.37992 51.0848   2
  -2  20   9 426.748 80.7642   3
  -2  20   9 288.409 69.5246   2
  -2  20   8 18.5963 47.6408   3
  -2  20   8 99.3327 49.4788   2
  -2  20   7 105.322 46.8136   2
  -2  20   7 152.136 59.7927   3
  -2  20   6 27.9113 51.1171   3
  -2  20   6 135.605 56.9615   2
  -2  20   5 546.619 83.3218   3
  -2  20   5 621.919 83.0152   2
  -2  20   4 3399.82 179.826   3
  -2  20   4 3360.49 160.422   2
   2  20  -3 52.8369 39.8358   3
  -2  20   3 43.5937 50.5721   3
   2  20  -2 105.929 41.2592   3
  -2  20   2 65.1125 47.0996   3
   2  20  -1 38.2981 33.7823   3
  -2  20   1-61.3699 53.7780   3
  -2  20   0-55.8947 50.8414   3
   2  20   0-18.0011 38.7058   3
  -2  20  -1 219.303 58.1474   3
   2  20   1 195.789 44.2798   3
  -2  20  -2 636.110 81.3892   3
   2  20   2 514.182 62.8348   3
  -2  20  -3 273.888 70.3530   3
   2  20   3 126.736 44.0879   3
   2  20   4-18.7951 35.2573   3
  -2  20  -4 91.3327 53.5378   3
   2  20   5 165.583 44.9880   3
   2  20   6 406.991 63.2798   3
   2  20  11 184.655 66.5871   2
   2  20  12 156.147 68.9521   2
   2  20  13 843.782 101.475   2
   2  20  14 99.4485 59.1565   2
   2  20  15 73.7794 60.9385   2
   2  20  16-0.21966 54.0149   4
   2  20  16-28.7275 65.7433   2
   2  20  17-29.1664 55.2530   2
   2  20  17 14.3720 53.4495   4
   2  20  18 11.7355 57.1164   4
   2  20  18-93.9149 79.6534   2
   2  20  19 97.9418 70.2980   2
   2  20  19 52.6950 71.0155   4
   2  20  20 46.5754 79.3950   4
  -2  21  18 40.1061 75.6073   4
  -2  21  17 78.2268 82.5310   2
  -2  21  17-74.2233 67.5446   4
  -2  21  16 415.195 103.571   2
  -2  21  16 463.406 107.105   4
  -2  21  15 247.702 84.1991   2
  -2  21  15 260.225 79.7600   4
  -2  21  14 1306.58 141.313   2
  -2  21  13 442.488 90.0244   2
  -2  21  12 1770.25 150.760   2
  -2  21  11 174.284 63.7274   2
  -2  21  10 2597.17 168.238   2
  -2  21   9-11.3331 48.2292   2
  -2  21   9 14.9353 58.0424   3
  -2  21   8 43.1351 51.8765   3
  -2  21   8 53.0439 54.9265   2
  -2  21   7 946.993 106.504   3
  -2  21   7 862.181 95.1562   2
  -2  21   6 1666.77 122.327   2
  -2  21   6 1662.00 135.660   3
  -2  21   5 1769.93 138.148   3
  -2  21   5 1361.84 108.246   2
  -2  21   4 8298.51 299.484   3
  -2  21   4 8108.91 264.046   2
   2  21  -4 8563.18 252.463   3
   2  21  -3 2801.52 136.895   3
  -2  21   3 2907.81 168.993   3
  -2  21   2 5751.61 236.005   3
   2  21  -2 6014.34 206.600   3
  -2  21   1 473.464 75.7852   3
   2  21  -1 539.036 62.5074   3
  -2  21   0-92.5304 57.6037   3
   2  21   0-38.4852 42.0583   3
  -2  21  -1 1176.10 104.414   3
   2  21   1 1275.05 91.2392   3
   2  21   2 9724.76 280.588   3
  -2  21  -2 9662.13 312.542   3
  -2  21  -3 294.546 71.0947   3
   2  21   3 101.709 35.4838   3
  -2  21  -4 5732.09 230.580   3
   2  21   4 5452.50 203.945   3
   2  21   5 1345.32 102.975   3
   2  21   6 6731.06 239.675   3
   2  21  11 945.072 103.139   2
   2  21  12 1450.30 130.325   2
   2  21  13 295.718 76.4287   2
   2  21  14 1046.70 116.980   2
   2  21  15 367.017 85.3008   2
   2  21  16 34.8173 64.7909   2
   2  21  17 48.0187 63.6611   4
   2  21  17-47.1386 67.1946   2
   2  21  18 347.447 91.7019   4
   2  21  18 233.690 71.4531   2
   2  21  19 8.40239 59.4915   4
  -2  22  17 73.2570 74.7318   4
  -2  22  17 140.781 74.5878   2
  -2  22  16 167.975 81.8035   4
  -2  22  16 260.687 80.9331   2
  -2  22  15-25.3899 62.9727   2
  -2  22  15 7.94260 66.2267   4
  -2  22  14 169.989 72.5390   2
  -2  22  13-53.3438 68.8573   2
  -2  22  12 8.95635 58.8025   2
  -2  22  11-9.70966 50.7711   2
  -2  22  10 485.347 80.0371   2
  -2  22   9-23.4602 50.6401   2
  -2  22   9 84.0403 64.8885   3
  -2  22   8 2070.16 146.843   2
  -2  22   8 2147.03 161.189   3
  -2  22   7 241.952 67.7185   2
  -2  22   7 214.982 69.5269   3
  -2  22   6 304.124 71.2589   3
  -2  22   6 329.418 69.2418   2
  -2  22   5 385.088 76.5243   3
  -2  22   5 277.047 64.9483   2
   2  22  -4 1170.12 95.3971   3
  -2  22   4 910.372 106.422   3
  -2  22   4 1160.19 102.414   2
  -2  22   3 1983.96 144.768   3
   2  22  -3 2049.85 121.617   3
  -2  22   2 76.6392 45.5442   3
   2  22  -2 63.8826 42.4429   3
   2  22  -1 834.528 79.2081   3
  -2  22   1 947.900 98.5717   3
   2  22   0 427.944 62.5308   3
  -2  22   0 410.262 73.4198   3
  -2  22  -1 976.143 100.276   3
   2  22   1 1124.24 93.7428   3
   2  22   2 626.608 73.6357   3
  -2  22  -2 781.441 96.4423   3
  -2  22  -3 287.578 67.8343   3
   2  22   3 220.010 50.0092   3
  -2  22  -4 82.2218 53.0675   3
   2  22   4 44.2291 36.6465   3
   2  22   5 76.0546 42.4599   3
  -2  22  -5 255.815 66.7928   3
   2  22   6 94.4116 43.2283   3
   2  22  11 334.281 74.3822   2
   2  22  12 212.732 66.7679   2
   2  22  13 214.994 74.9559   2
   2  22  14 147.548 72.0068   2
   2  22  15-17.3727 52.5405   2
   2  22  16 4.87527 62.2076   2
   2  22  17 128.258 76.3292   4
   2  22  17-116.061 70.1238   2
   2  22  18 67.8301 69.9550   2
   2  22  18 239.506 86.9583   4
   2  22  19-33.5489 64.1658   4
  -2  23  16 262.872 94.1126   2
  -2  23  16 215.898 85.2867   4
  -2  23  15 43.0854 71.2000   2
  -2  23  14 976.554 126.796   2
  -2  23  13 582.216 96.0687   2
  -2  23  12 803.344 111.485   2
  -2  23  11 50.1136 62.0381   2
  -2  23  10 2239.70 167.867   2
  -2  23   9 28.1881 54.1842   3
  -2  23   9 71.7237 59.2383   2
  -2  23   8 495.110 89.8696   3
  -2  23   8 490.578 84.0233   2
  -2  23   7 55.8948 62.6992   3
  -2  23   7 97.8859 62.6610   2
  -2  23   6 2881.55 182.082   3
  -2  23   6 2533.91 156.451   2
   2  23  -5 1272.11 100.753   3
  -2  23   5 1299.65 125.531   3
  -2  23   5 1263.45 112.961   2
  -2  23   4 1015.78 110.942   3
   2  23  -4 957.466 88.2160   3
  -2  23   4 1101.84 101.316   2
  -2  23   3 1498.62 130.114   3
   2  23  -3 1373.14 102.221   3
  -2  23   2-28.4198 60.8916   3
   2  23  -2 41.8418 39.2584   3
  -2  23   1 635.051 89.7517   3
   2  23  -1 675.734 72.9364   3
   2  23   0 566.329 70.9181   3
  -2  23   0 497.511 80.2688   3
   2  23   1 884.918 84.5609   3
  -2  23  -1 849.600 97.9564   3
   2  23   2 505.599 67.7426   3
  -2  23  -2 532.124 83.5235   3
  -2  23  -3 880.884 100.972   3
   2  23   3 804.935 82.8497   3
   2  23   4 2889.69 153.947   3
  -2  23  -4 3032.87 175.080   3
  -2  23  -5 2614.80 164.323   3
   2  23   5 2456.57 143.761   3
   2  23   6 2417.63 147.316   3
   2  23  11 85.5215 64.8830   2
   2  23  12 1886.17 147.932   2
   2  23  13 448.104 90.3513   2
   2  23  14 623.769 99.3033   2
   2  23  15 49.5146 65.9155   2
   2  23  16-47.7490 68.3594   2
   2  23  17-4.92161 66.2924   2
   2  23  17-48.2463 68.3498   4
   2  23  18 28.9481 69.3646   4
  -2  24  15 480.770 107.311   2
  -2  24  14 95.9745 73.9789   2
  -2  24  13-40.4742 74.7933   2
  -2  24  12-66.7558 77.6911   2
  -2  24  11 307.395 82.7605   2
  -2  24  10 1254.36 130.509   2
  -2  24   9 28.4227 58.7385   2
  -2  24   9 40.7565 55.3684   3
  -2  24   8 1799.51 141.354   2
  -2  24   8 2061.20 165.130   3
  -2  24   7 210.729 70.0852   3
  -2  24   7 219.300 63.9698   2
  -2  24   6 2940.93 174.450   2
  -2  24   6 3118.99 196.051   3
  -2  24   5 62.5387 62.2687   3
  -2  24   5 92.3362 57.3624   2
   2  24  -5 64.4333 46.3343   3
  -2  24   4 12.6443 49.9858   3
   2  24  -4 50.2093 40.2961   3
  -2  24   4 147.989 57.0791   2
  -2  24   3 114.920 61.9776   3
   2  24  -3 73.9396 41.5881   3
  -2  24   2 2147.31 154.143   3
   2  24  -2 2108.97 129.263   3
  -2  24   1 121.550 55.9720   3
   2  24  -1 213.171 52.1753   3
  -2  24   0 2587.77 165.889   3
   2  24   0 2492.56 142.877   3
   2  24   1 366.245 61.5624   3
  -2  24  -1 329.741 70.0281   3
  -2  24  -2 1325.74 121.335   3
   2  24   2 1355.93 105.529   3
   2  24   3 691.656 80.1902   3
  -2  24  -3 601.454 89.0437   3
  -2  24  -4 92.5128 67.6623   3
   2  24   4 28.6612 38.8174   3
  -2  24  -5 697.455 95.1320   3
   2  24   5 530.047 73.8716   3
  -2  24  -6 559.631 89.2464   3
   2  24   6 553.472 77.4527   3
   2  24  11 225.904 75.0131   2
   2  24  12 206.512 70.5442   2
   2  24  13 72.7358 67.0955   2
   2  24  14 368.071 82.0371   2
   2  24  15 270.909 85.5074   2
   2  24  16 634.328 105.161   2
   2  24  17 15.1952 63.2340   4
  -2  25  14 21.8985 58.8596   2
  -2  25  13-68.1040 76.4319   2
  -2  25  12 325.725 76.4546   2
  -2  25  11-88.5769 73.2486   2
  -2  25  10 97.8361 63.8863   2
  -2  25   9 8.63451 60.4369   2
  -2  25   9 154.802 66.2436   3
  -2  25   8 42.6627 57.1653   3
  -2  25   8 80.3018 57.7634   2
  -2  25   7 20.2928 51.1094   2
  -2  25   7-8.06705 60.5791   3
  -2  25   6 485.588 91.1224   3
   2  25  -6 604.041 79.7565   3
  -2  25   6 554.937 88.0119   2
  -2  25   5 42.8664 52.0901   3
  -2  25   5 151.376 60.3519   2
   2  25  -5 205.833 56.7331   3
  -2  25   4 588.430 96.5922   3
   2  25  -4 829.816 89.0686   3
  -2  25   4 936.333 101.601   2
   2  25  -3 163.825 53.1284   3
  -2  25   3 37.4943 57.0711   3
   2  25  -2-40.1017 42.7312   3
  -2  25   2-29.2105 56.2260   3
   2  25  -1 78.2673 44.6720   3
  -2  25   1-111.796 66.4376   3
  -2  25   0-66.5421 60.5344   3
   2  25   0 1.25570 40.1471   3
  -2  25  -1 41.6420 49.5389   3
   2  25   1 62.3362 41.7341   3
   2  25   2 431.355 67.5996   3
  -2  25  -2 444.469 79.9879   3
  -2  25  -3 364.729 79.6908   3
   2  25   3 338.324 63.5127   3
  -2  25  -4 1391.24 126.535   3
   2  25   4 1407.89 113.526   3
  -2  25  -5 498.054 88.7815   3
   2  25   5 237.764 56.3116   3
  -2  25  -6 405.373 84.5824   3
   2  25   6 227.392 61.5677   3
  -2  25  -7 492.368 89.2262   3
   2  25  11 182.994 79.1351   2
   2  25  12 318.427 76.6335   2
   2  25  13 66.3935 67.5249   2
   2  25  14 37.8784 58.3238   2
   2  25  15 78.5268 73.8301   2
  -2  26  13-108.347 77.6650   2
  -2  26  12-83.3856 65.7858   2
  -2  26  11 242.425 73.3492   2
  -2  26  10 1072.47 123.908   2
  -2  26   9 708.508 110.257   3
  -2  26   9 608.328 93.9276   2
  -2  26   8 1806.81 147.140   2
  -2  26   8 1784.43 159.292   3
  -2  26   7 360.415 86.5346   3
   2  26  -7 314.971 67.2986   3
  -2  26   7 248.054 75.3025   2
   2  26  -6 1115.13 103.130   3
  -2  26   6 1063.57 112.420   2
  -2  26   6 1117.18 129.405   3
  -2  26   5 74.8109 58.2607   2
  -2  26   5-12.7155 57.5172   3
   2  26  -5-1.42817 39.7810   3
  -2  26   4 144.543 64.2989   2
  -2  26   4 60.2457 53.3932   3
   2  26  -4-13.1675 45.7756   3
  -2  26   3 34.7062 52.7198   3
   2  26  -3 142.852 50.3079   3
   2  26  -2 1058.16 98.1814   3
  -2  26   2 1197.63 124.975   3
   2  26  -1 578.180 77.9150   3
  -2  26   1 413.436 79.8808   3
   2  26   0 2805.61 159.582   3
  -2  26   0 3181.97 192.313   3
   2  26   1 679.926 81.8604   3
  -2  26  -1 674.871 96.9132   3
   2  26   2 3479.13 178.589   3
  -2  26  -2 3097.59 191.037   3
   2  26   3 193.485 57.2071   3
  -2  26  -3 206.480 65.2382   3
   2  26   4 98.7220 49.0614   3
  -2  26  -4 5.81737 58.6866   3
  -2  26  -5 101.111 66.3567   3
   2  26   5 25.4068 42.2133   3
  -2  26  -6 1172.77 120.249   3
   2  26   6 1393.21 120.395   3
  -2  26  -7 930.484 114.814   3
   2  26  11 153.417 74.6712   2
   2  26  12 17.1163 57.3006   2
   2  26  13 34.9407 65.3787   2
   2  26  14 388.141 80.9669   2
  -2  27  12-90.5551 76.0941   2
  -2  27  11 58.3420 55.9243   2
  -2  27  10-3.61490 58.4662   2
  -2  27   9-63.9149 63.2582   3
  -2  27   9 77.4842 66.2814   2
  -2  27   8 57.4639 62.3426   3
  -2  27   8 123.911 72.4975   2
   2  27  -7 217.491 62.8091   3
  -2  27   7 110.219 60.2010   3
  -2  27   7 256.052 75.9010   2
  -2  27   6-18.2105 52.0756   3
  -2  27   6-17.6666 53.4980   2
   2  27  -6 98.3143 54.6124   3
   2  27  -5 135.998 51.9465   3
  -2  27   5 97.5338 64.8937   3
  -2  27   5 258.409 76.5408   2
  -2  27   4 116.987 66.9166   2
   2  27  -4 50.5786 39.6761   3
  -2  27   4 14.2225 57.3424   3
  -2  27   3 75.8124 65.9666   3
   2  27  -3-27.4664 44.2244   3
   2  27  -2 39.7727 45.6419   3
  -2  27   2-11.9665 59.3389   3
   2  27  -1-3.29296 44.1275   3
  -2  27   1-30.6352 57.0472   3
   2  27   0 72.2778 48.2831   3
  -2  27   0 74.1906 57.9141   3
  -2  27  -1 109.869 62.4094   3
   2  27   1 188.698 58.1306   3
   2  27   2 5.17756 39.5528   3
  -2  27  -2 74.6677 65.4784   3
  -2  27  -3-57.4050 66.7055   3
   2  27   3 17.1841 43.3760   3
  -2  27  -4 235.774 71.2907   3
   2  27   4 185.238 60.6031   3
  -2  27  -5 59.0908 52.3812   3
   2  27   5 49.7713 42.5803   3
  -2  27  -6 279.371 84.1730   3
   2  27   6 55.6352 51.0069   3
  -2  27  -7 379.032 95.4271   3
  -2  27  -8 81.9748 62.0509   3
   2  27  11 419.936 87.8692   2
   2  27  12 115.145 70.0348   2
  -2  28  11 152.771 67.7323   2
  -2  28  10 697.916 109.091   2
  -2  28   9 695.036 108.143   2
  -2  28   9 567.793 109.681   3
  -2  28   8 1314.80 146.136   3
   2  28  -8 1282.79 119.574   3
  -2  28   8 1308.97 137.264   2
   2  28  -7 587.211 87.0669   3
  -2  28   7 472.615 99.1090   3
  -2  28   7 544.715 98.4713   2
   2  28  -6 567.836 82.7169   3
  -2  28   6 397.003 91.9270   3
  -2  28   6 514.408 88.8380   2
   2  28  -5 39.8136 44.5861   3
  -2  28   5 45.4979 64.2127   3
  -2  28   5 56.1733 61.8521   2
   2  28  -4 166.218 58.9604   3
  -2  28   4 175.610 66.1329   2
  -2  28   4 2.77966 61.2008   3
   2  28  -3 145.511 53.5254   3
  -2  28   3 45.2473 55.8854   3
  -2  28   3 248.515 74.2685   2
   2  28  -2 1194.49 108.950   3
  -2  28   2 1199.49 132.880   3
   2  28  -1 995.308 102.396   3
  -2  28   1 909.621 111.389   3
  -2  28   0 1745.07 153.462   3
   2  28   0 2103.33 145.263   3
   2  28   1 666.506 88.0652   3
  -2  28  -1 455.253 90.0949   3
   2  28   2 1507.89 125.464   3
  -2  28  -2 1461.90 142.258   3
   2  28   3 224.730 59.0279   3
  -2  28  -3 204.174 76.5960   3
  -2  28  -4 110.617 58.2853   3
   2  28   4 70.3047 44.4655   3
  -2  28  -5 62.0691 59.3189   3
   2  28   5-9.98372 46.7526   3
   2  28   6 1126.79 116.119   3
  -2  28  -6 1235.11 129.901   3
  -2  28  -7 710.001 107.002   3
  -2  28  -8 1654.49 151.323   3
  -2  28  -9 814.578 112.645   3
   2  28  10 480.017 89.9310   2
   2  28  11 270.808 84.4094   2
  -2  29  10-33.5148 68.4279   2
   2  29  -9 292.969 73.9881   3
  -2  29   9 207.238 88.8569   3
  -2  29   9 318.411 90.6414   2
  -2  29   8-49.7478 69.5068   3
  -2  29   8 12.8141 62.8692   2
  -2  29   7 111.722 76.6268   3
  -2  29   7 178.815 72.8288   2
   2  29  -7 226.311 65.3616   3
  -2  29   6 531.082 100.947   3
  -2  29   6 586.143 96.6807   2
   2  29  -6 505.316 80.8265   3
  -2  29   5 366.488 83.6802   3
  -2  29   5 456.605 92.7735   2
   2  29  -5 451.420 77.2327   3
  -2  29   4 463.086 90.4103   3
  -2  29   4 453.084 83.0388   2
   2  29  -4 286.608 67.2886   3
   2  29  -3 554.053 85.7281   3
  -2  29   3 673.481 99.6124   2
  -2  29   3 467.646 93.6423   3
   2  29  -2 104.301 55.2205   3
  -2  29   2 137.029 60.8718   3
   2  29  -1 73.7062 51.7100   3
  -2  29   1 51.8557 53.4218   3
  -2  29   0 27.2108 50.8552   3
   2  29   0 204.016 65.3759   3
  -2  29  -1 355.733 85.7487   3
   2  29   1 346.548 72.5972   3
  -2  29  -2 83.8101 66.9154   3
  -2  29  -3 43.7385 57.6594   3
  -2  29  -4 76.0145 65.8899   3
  -2  29  -5 50.1508 58.0104   3
  -2  29  -6 217.974 83.8897   3
  -2  29  -7 178.465 80.7757   3
  -2  29  -8 101.419 65.6035   3
  -2  29  -9 258.441 80.2135   3
  -2  29 -10 189.282 80.6714   3
  -2  30   9 449.324 102.367   2
  -2  30   9 384.952 97.1675   3
  -2  30   8 740.362 119.867   3
  -2  30   8 574.551 105.449   2
  -2  30   7 252.266 81.1155   3
  -2  30   7 391.594 85.0814   2
  -2  30   6 186.157 75.0762   3
  -2  30   6 217.622 81.9982   2
  -2  30   5 6.87768 68.8028   3
  -2  30   5 95.3272 68.8336   2
  -2  30   4-6.68797 66.6233   3
  -2  30   4 23.4409 58.2880   2
  -2  30   3 341.199 80.2704   2
  -2  30   3 263.329 83.1210   3
  -2  30   2 837.130 114.385   3
  -2  30   1 300.734 76.5915   3
  -2  30   0 1084.35 127.842   3
  -2  30  -1 224.000 74.6658   3
  -2  30  -2 64.9979 68.9843   3
  -2  30  -3-31.6925 57.6620   3
  -2  30  -4-79.2057 69.6223   3
  -2  30  -5-33.2075 62.1301   3
  -2  30  -6 550.378 104.271   3
  -2  30  -7 432.173 97.4497   3
  -2  30  -8 446.017 98.0958   3
  -2  30  -9 176.583 78.6708   3
  -2  31   9 16.1176 69.6198   3
  -2  31   8-13.7755 72.0651   3
  -2  31   7 150.647 77.2414   3
  -2  31   7 70.4704 68.8664   2
  -2  31   6 299.459 87.8699   3
  -2  31   6 337.611 89.4285   2
  -2  31   5 1108.50 127.392   2
  -2  31   5 1087.85 137.050   3
  -2  31   4 618.982 107.605   3
  -2  31   4 958.807 118.393   2
  -2  31   3 608.116 111.095   3
  -2  31   3 641.397 100.475   2
  -2  31   2 747.357 115.764   3
  -2  31   1-66.1876 68.2776   3
  -2  31   0-74.9492 65.4407   3
  -2  31  -1 41.9662 64.2767   3
  -2  31  -2 7.13679 66.0294   3
  -2  31  -3 273.624 83.0089   3
  -2  31  -4 543.540 98.8558   3
  -2  31  -5 217.590 88.2205   3
  -2  31  -6 600.517 108.690   3
  -2  31  -7-59.9414 66.5008   3
  -2  31  -8 163.761 69.4973   3
  -2  32   7-52.7188 81.2715   3
  -2  32   6 7.19727 69.5777   3
  -2  32   5 87.3845 80.4115   3
  -2  32   5 199.613 82.0700   2
  -2  32   4 11.8104 59.3630   3
  -2  32   4 83.8852 65.2140   2
  -2  32   3 57.5845 60.5258   3
  -2  32   3 171.681 73.6351   2
  -2  32   2-83.8286 76.8796   3
  -2  32   2 344.258 87.3066   2
  -2  32   1 134.303 78.3923   3
  -2  32   0 117.506 63.9034   3
  -2  32  -1 6.95604 70.0885   3
  -2  32  -2-72.6440 68.8620   3
  -2  32  -3 16.7879 68.8591   3
  -2  32  -4 32.4410 62.1853   3
  -2  32  -5 68.3585 64.0102   3
  -2  32  -6 157.671 81.1475   3
  -2  33   4 485.306 110.623   3
  -2  33   3 640.071 113.596   3
  -2  33   3 491.091 95.0512   2
  -2  33   2 458.579 94.7825   2
  -2  33   2 337.583 93.6400   3
  -2  33   1-62.4713 77.1478   3
  -2  33   0-35.2004 64.3035   3
  -2  33  -1 82.1032 71.8788   3
  -2  33  -2 208.733 77.2802   3
  -2  33  -3 251.519 83.0737   3
  -2  34   1 249.142 84.3510   2
  -3   0  23 64.9801 76.0716   2
  -3   0  22 128.581 77.3134   2
  -3   0  21 32.0899 58.0002   2
  -3   0  20-66.2875 64.8435   2
  -3   0  19 64.1368 64.8329   2
  -3   0  18 257.551 83.2943   2
  -3   0  17-41.0392 55.5626   2
  -3   0  16 144.011 69.7217   2
  -3   0  15 46.8207 59.2829   2
  -3   0  14 463.303 78.2908   2
  -3   0  13-17.6297 45.7500   2
  -3   0  12 295.710 67.8361   2
  -3   0  11 20.7426 45.8842   2
  -3   0  10 1819.94 117.601   2
  -3   0   9 0.95705 38.4803   2
  -3   0   8 5401.96 191.995   2
  -3   0   7-43.8618 40.1115   2
  -3   0   6 4638.84 160.672   2
   3   0  -5-8.94526 21.6380   4
  -3   0   5-20.8396 31.4698   2
   3   0  -5 11.0162 16.7226   3
   3   0  -5 0.58979 11.3492   1
   3   0  -4 5849.48 125.850   1
   3   0  -4 6074.55 152.892   3
   3   0  -4 5742.39 166.118   2
  -3   0   4 6133.50 172.999   2
   3   0  -4 6044.03 163.873   4
  -3   0   3 13.4564 23.5398   2
   3   0  -3-16.3913 19.9849   1
   3   0  -3 4.52570 12.9241   3
   3   0  -3 12.1082 17.7265   2
   3   0  -3 10.7457 15.9193   4
   3   0  -2 3973.84 103.199   3
  -3   0   2 4161.67 123.765   2
   3   0  -2 4194.95 122.363   2
  -3   0   2 4089.41 104.860   3
   3   0  -2 3902.75 112.136   4
  -3   0   1 4.13825 13.2997   3
   3   0  -1-2.07004 10.4972   3
   3   0  -1 1.16096 13.0573   4
   3   0  -1 1.66434 14.6160   2
   3   0   0 5631.45 115.604   4
   3   0   0 5456.24 134.154   2
  -3   0   0 5814.05 120.264   3
   3   0   1 2.44592 6.28330   4
   3   0   6 2250.23 59.5616   2
   3   0   7-19.2637 15.1957   2
   3   0   8 9569.37 189.020   2
   3   0   9 10.5541 16.2607   2
   3   0  10 10017.0 217.489   2
   3   0  11-22.8011 24.1386   2
   3   0  12 3420.14 124.124   2
   3   0  13-35.2659 27.7790   2
   3   0  14 25.6798 48.5811   1
   3   0  14 62.7827 28.4331   2
   3   0  15-184.900 68.8637   1
   3   0  15-30.1143 31.7828   2
   3   0  16 505.120 71.6817   1
   3   0  16 544.215 64.5254   2
   3   0  17-51.5997 38.9976   2
   3   0  17-40.4003 44.5716   1
   3   0  18 618.259 71.6013   2
   3   0  18 604.174 81.0237   1
   3   0  19 7.49558 44.4297   1
   3   0  20 155.702 51.8149   1
  -3   1  24 67.9813 80.1294   2
  -3   1  23 458.110 111.355   2
  -3   1  22 169.550 71.0299   2
  -3  -1  21 23.5795 68.4953   2
  -3   1  21-25.7942 65.4801   2
  -3   1  20 418.471 95.9930   2
  -3  -1  20 301.218 82.9466   2
  -3  -1  19 764.978 112.651   2
  -3   1  19 667.184 106.696   2
  -3  -1  18 369.198 90.1093   2
  -3   1  18 325.843 84.9909   2
  -3   1  17 7172.83 299.013   2
  -3  -1  17 7180.71 297.503   2
  -3  -1  16 350.040 93.7568   2
  -3   1  16 41.3556 60.0345   2
  -3  -1  15 3525.11 194.408   2
  -3   1  15 3824.23 199.455   2
  -3   1  14 65.0132 49.2078   2
  -3  -1  14 167.169 61.8991   2
  -3  -1  13 41.3558 43.3485   2
  -3   1  13 5.69897 44.7079   2
  -3  -1  12 80.9223 51.4530   2
  -3   1  12 20.8783 44.7163   2
  -3   1  11 11224.6 327.737   2
  -3  -1  11 12151.1 335.807   2
  -3  -1  10 122.440 49.5704   2
  -3   1  10 26.6542 40.1176   2
  -3   1   9 18550.1 425.094   2
  -3  -1   9 19044.2 428.120   2
  -3   1   8 5182.83 187.073   2
  -3  -1   8 5154.55 187.193   2
  -3  -1   7 35144.4 648.089   2
  -3   1   7 34680.1 643.056   2
  -3   1   6 1325.46 86.3145   2
   3  -1  -6 1379.96 77.2216   3
   3  -1  -6 1360.08 39.2325   1
  -3  -1   6 1454.46 90.2121   2
  -3  -1   5 101.652 34.6880   2
   3   1  -5 149.689 31.2020   4
   3   1  -5 123.497 16.8719   1
   3  -1  -5 103.582 15.1895   1
   3  -1  -5 110.185 27.0015   3
   3  -1  -5 94.1942 23.4621   4
  -3   1   5 108.572 37.1451   2
   3  -1  -4 1104.80 65.7144   2
   3   1  -4 1129.60 65.5126   4
   3  -1  -4 1174.39 64.7951   4
   3  -1  -4 1003.14 58.2742   3
   3   1  -4 1221.67 70.3630   2
   3   1  -4 1181.56 46.3285   1
  -3  -1   4 1148.56 72.2012   2
   3   1  -4 1191.30 58.8352   3
  -3   1   4 1112.88 71.3300   2
   3  -1  -3 735.151 50.9708   2
  -3   1   3 769.232 47.3470   3
   3  -1  -3 698.207 44.8779   3
   3   1  -3 701.037 48.8250   4
   3   1  -3 698.492 50.9444   2
   3  -1  -3 734.048 47.6902   4
  -3   1   3 782.376 55.4397   2
   3   1  -3 724.800 42.4512   3
   3   1  -3 752.148 40.6800   1
   3  -1  -2-1.48121 13.9501   3
   3   1  -2 2.90606 10.6432   3
  -3   1   2 15.2292 14.6385   3
   3  -1  -2 13.8267 15.3377   2
   3   1  -2-9.31436 18.0030   1
   3  -1  -2 7.28687 13.9046   4
   3   1  -2 21.3803 16.8481   2
  -3   1   2 17.4953 22.0384   2
   3  -1  -1 4717.99 114.501   4
   3   1  -1 5034.30 106.908   3
  -3   1   1 4698.48 117.141   3
   3  -1  -1 4983.09 129.504   2
   3   1  -1 5075.52 130.225   1
  -3   1   1 4955.15 128.945   2
   3   1  -1 5090.98 134.122   2
  -3  -1   1 4979.41 106.791   3
   3  -1  -1 5131.37 118.768   3
  -3   1   0 267.060 24.9429   3
  -3  -1   0 244.630 18.2325   3
   3  -1   0 269.752 24.9837   2
   3   1   0 245.462 30.7461   1
   3  -1   1 7932.44 158.236   2
   3  -1   2 255.903 20.9850   2
  -3   1  -5 3430.50 77.1091   4
   3   1   5 3739.42 82.8309   4
   3  -1   5 3564.90 69.9689   2
   3  -1   6 6612.76 123.279   2
  -3   1  -6 6723.63 136.631   4
   3   1   7 38604.8 589.403   2
  -3   1  -7 38239.0 600.120   4
   3  -1   7 37649.2 578.511   2
  -3   1  -8 967.812 52.2537   4
   3   1   8 872.067 45.2821   2
   3  -1   8 934.726 42.3980   2
   3  -1   9 16098.8 291.136   2
  -3   1  -9 16470.5 314.204   4
   3   1   9 15858.9 300.130   2
   3   1  10 9.75731 19.1451   2
   3  -1  10-1.12076 19.6678   2
  -3   1 -10 14.6404 19.9749   4
   3   1  11 4238.87 133.049   2
   3  -1  11 4230.51 128.171   2
   3   1  11 4028.44 162.594   1
   3   1  12 113.171 25.7899   2
   3  -1  12 165.011 29.9139   2
   3   1  12 56.4739 39.9056   1
   3   1  13 26.4535 25.0529   2
   3  -1  13-7.95015 25.6346   2
   3   1  13-41.0463 51.7238   1
   3   1  14 301.863 43.4400   2
   3   1  14 294.738 55.2035   1
   3  -1  14 249.109 39.4452   2
   3   1  15 1885.51 106.699   2
   3   1  15 2024.09 124.650   1
   3  -1  15 2050.55 106.785   2
   3  -1  16-12.9276 42.9761   1
   3  -1  16-16.6066 34.4071   2
   3   1  16 17.9596 45.9705   1
   3   1  16 9.15763 31.5447   2
   3   1  17 2547.01 135.197   2
   3   1  17 2284.48 140.311   1
   3  -1  17 2473.64 129.216   2
   3  -1  17 2264.74 140.032   1
   3   1  18-15.6594 45.0756   1
   3  -1  18-16.4129 47.5169   1
   3   1  18 40.9907 38.1033   2
   3  -1  18 35.1377 36.5679   2
   3   1  19 251.966 58.2031   1
   3  -1  19 298.864 62.2265   1
   3  -1  20 31.9353 43.4154   1
   3   1  20 29.6627 40.8956   1
  -3   2  24 59.1433 84.6068   2
  -3   2  23 77.7993 84.9668   2
  -3   2  22-89.3435 71.7530   2
  -3   2  21 365.780 94.4968   2
  -3   2  20-38.5604 70.4919   2
  -3  -2  19 1036.47 124.712   2
  -3   2  19 972.608 123.522   2
  -3  -2  18 445.095 99.3341   2
  -3   2  18 349.369 84.1639   2
  -3  -2  17 39.9787 58.6435   2
  -3   2  17 61.7673 63.2361   2
  -3  -2  16 113.041 70.1603   2
  -3   2  16 133.584 63.0095   2
  -3   2  15 468.680 81.1109   2
  -3  -2  15 549.163 86.3078   2
  -3  -2  14 82.6913 56.9705   2
  -3   2  14 7.14902 47.0157   2
  -3  -2  13 539.268 82.9253   2
  -3   2  13 524.744 78.2536   2
  -3   2  12-6.36660 44.8122   2
  -3  -2  12 112.056 56.9303   2
  -3   2  11 4192.13 184.848   2
  -3  -2  11 3931.74 180.756   2
  -3   2  10 43.2202 36.9280   2
  -3  -2  10 116.362 51.1706   2
  -3   2   9 885.277 80.8857   2
  -3  -2   9 1057.77 86.6391   2
  -3   2   8 2207.78 118.821   2
  -3  -2   8 2326.08 123.077   2
  -3   2   7 3699.76 147.589   4
  -3   2   7 3603.75 147.874   2
  -3  -2   7 4017.94 156.930   2
  -3   2   6 7523.27 208.795   4
  -3   2   6 7422.65 212.979   2
  -3  -2   6 7262.82 143.277   1
   3  -2  -5 13967.2 290.080   3
  -3   2   5 13672.4 298.492   4
  -3  -2   5 13355.7 240.390   1
  -3   2   5 13418.9 302.885   2
   3  -2  -5 13789.7 296.729   4
  -3  -2   4-16.9960 16.6242   1
   3  -2  -4-14.6927 20.2905   2
   3  -2  -4-13.0538 20.3882   4
   3   2  -4-23.3821 21.7545   2
   3   2  -4 8.43577 14.9683   1
  -3   2   4-0.15057 27.2909   2
   3  -2  -4-5.17320 17.4820   3
  -3   2   4-8.44903 23.2385   4
   3  -2  -3 24119.3 425.851   2
   3  -2  -3 23573.1 413.144   3
   3   2  -3 23345.4 392.145   3
  -3   2   3 23610.9 418.259   4
  -3   2   3 23135.8 427.354   2
   3   2  -3 23804.6 392.319   1
  -3   2   3 23064.0 414.078   3
   3   2  -3 23976.8 435.558   2
  -3   2   2 275.474 29.9823   3
   3  -2  -2 339.272 32.2688   2
   3   2  -2 369.591 38.9045   2
   3   2  -2 345.139 24.8144   3
   3   2  -2 324.945 30.9828   1
   3  -2  -2 307.621 29.4783   3
  -3   2   2 322.518 34.8577   2
  -3   2   2 344.402 32.0067   4
   3  -2  -1 1251.74 56.3804   2
  -3   2   1 1274.22 55.8198   3
   3   2  -1 1249.60 40.3452   3
  -3   2   1 1251.87 59.2152   2
   3  -2  -1 1252.57 55.5692   3
   3   2  -1 1237.90 59.5007   1
  -3   2   1 1264.06 52.4023   4
   3  -2   0 1937.82 66.2196   2
   3   2   0 2001.57 81.0899   1
  -3  -2   0 1885.03 48.4984   3
  -3   2   0 2031.68 68.9075   2
  -3   2   0 1916.37 59.5589   4
  -3   2   0 1917.37 68.7018   3
  -3   2  -1 351.931 19.8036   4
   3   2   1 330.142 38.1436   1
   3  -2   1 362.495 25.1195   2
  -3  -2  -1 373.882 19.6958   3
   3  -2   2 8966.61 159.254   2
   3   2   2 9313.29 214.495   1
   3   2   3 2901.72 110.477   1
   3   2   4 1648.17 82.9659   1
  -3   2  -5 29243.0 444.064   4
   3   2   5 29268.9 529.190   1
   3   2   5 28444.5 449.364   4
  -3   2  -6 11328.6 212.664   4
   3   2   6 12484.2 282.370   1
   3   2   6 11700.4 219.031   4
   3  -2   7 420.864 23.1937   2
   3   2   7 434.126 52.2276   1
   3   2   7 370.274 33.1730   4
  -3   2  -7 421.526 32.4903   4
   3   2   7 465.433 33.7132   2
   3   2   8 327.242 49.2817   1
   3  -2   8 295.838 23.6949   2
   3   2   8 388.308 33.5878   2
  -3   2  -8 370.177 33.6172   4
   3   2   8 367.362 37.2404   4
   3  -2   9 14.8593 13.6508   2
   3   2   9 35.5355 20.1783   2
  -3   2  -9 42.4469 19.8219   4
   3   2   9-20.0971 40.2783   1
   3   2  10 329.879 53.4449   1
   3   2  10 390.209 40.0870   2
   3  -2  10 369.974 33.5658   2
  -3   2 -10 306.854 36.4981   4
   3   2  11 442.673 57.8439   1
   3  -2  11 548.514 42.0933   2
   3   2  11 545.919 47.6539   2
   3   2  12 630.040 66.7300   1
   3  -2  12 623.796 51.2817   2
   3   2  12 647.064 55.0318   2
   3   2  13 2187.43 105.607   2
   3  -2  13 2372.07 100.671   2
   3   2  13 2104.91 122.672   1
   3  -2  14 247.035 40.3560   2
   3   2  14 234.037 41.6707   2
   3   2  14 161.486 47.2891   1
   3   2  15 684.310 77.2514   1
   3   2  15 686.780 64.8825   2
   3  -2  15 755.961 64.8943   2
   3   2  16 144.238 43.9426   2
   3   2  16 158.425 51.4762   1
   3  -2  16 121.812 38.6392   2
   3  -2  17-2.31660 30.6225   2
   3   2  17 76.7586 45.7686   1
   3   2  17 13.3567 33.5569   2
   3   2  18 559.769 72.1411   2
   3  -2  18 596.944 79.9812   1
   3   2  18 531.730 77.8298   1
   3  -2  19 188.419 57.0201   1
   3   2  19 143.424 44.5562   2
   3   2  19 319.199 62.7499   1
   3  -2  20-31.3827 49.5152   1
  -3   3  24 19.5503 70.8441   2
  -3   3  23 213.797 95.7846   2
  -3   3  22 63.7550 67.5406   2
  -3   3  21 172.141 80.5735   2
  -3   3  20 39.0235 72.1034   2
  -3   3  19 1230.21 134.694   2
  -3   3  18-10.6491 61.4622   2
  -3   3  17 1812.21 148.266   2
  -3   3  16-5.26365 57.0811   2
  -3  -3  15 3831.48 202.365   2
  -3   3  15 3790.87 199.937   2
  -3  -3  14 492.115 86.8671   2
  -3   3  14 401.556 75.8331   2
  -3  -3  13 120.525 66.0708   2
  -3   3  13 33.7343 51.2436   2
  -3  -3  12 1226.79 116.344   2
  -3   3  12 1139.72 114.274   2
  -3  -3  11 4594.75 195.444   2
  -3   3  11 4451.41 191.613   2
  -3   3  10 2461.03 135.096   2
  -3  -3  10 2217.04 56.6224   1
  -3   3  10 2673.48 142.263   4
  -3   3   9 12647.5 330.451   2
  -3  -3   9 12382.5 211.689   1
  -3   3   9 12788.1 330.302   4
  -3   3   8 2547.91 126.328   2
  -3  -3   8 2440.25 66.9838   1
  -3   3   8 2605.93 130.446   4
  -3   3   7 41084.8 722.258   4
  -3   3   7 40771.4 723.398   2
  -3  -3   7 40006.8 614.851   1
  -3   3   6 3338.03 135.128   2
  -3   3   6 3417.69 133.944   4
  -3  -3   6 3405.94 88.5053   1
  -3  -3   5 11679.2 218.924   1
   3  -3  -5 11821.9 262.908   3
  -3   3   5 11265.8 270.139   2
  -3   3   5 11647.4 267.818   4
   3  -3  -4 14912.9 297.818   3
  -3   3   4 14274.0 305.196   2
  -3  -3   4 14748.6 266.696   1
   3  -3  -4 14574.7 300.325   2
  -3   3   4 14377.6 298.521   3
   3   3  -4 14297.0 312.135   2
  -3   3   4 14236.9 299.223   4
   3   3  -3 32750.6 577.734   2
  -3   3   3 35083.8 575.986   2
   3  -3  -3 33788.6 562.098   3
  -3   3   3 33897.0 564.495   4
   3   3  -3 33774.6 535.827   1
   3  -3  -3 33684.1 563.814   2
  -3  -3   3 31512.2 539.263   1
  -3   3   3 34019.3 564.773   3
  -3   3   2 99.6027 23.8560   3
  -3  -3   2 136.526 23.5069   1
   3  -3  -2 157.365 25.1556   2
   3   3  -2 132.798 16.6309   3
  -3   3   2 104.992 21.1085   4
   3   3  -2 174.947 28.0325   1
  -3   3   2 133.468 26.0268   2
   3  -3  -2 97.2760 21.0759   3
   3  -3  -1 547.029 38.2156   3
  -3   3   1 468.786 35.9003   2
   3  -3  -1 498.985 36.2423   2
   3   3  -1 435.425 20.4313   3
  -3  -3   1 491.579 38.4289   1
  -3   3   1 463.305 32.2808   4
  -3   3   1 429.078 35.8304   3
   3   3  -1 455.747 39.8179   1
  -3   3   0 65.4456 20.7347   3
   3  -3   0 43.6540 13.9477   2
   3   3   0 52.6169 25.7698   1
  -3   3   0 47.0197 16.3063   2
  -3  -3   0 25.1021 21.2969   1
   3   3   1 85.0525 26.9544   1
   3  -3   1 114.035 15.5874   2
  -3   3  -1 105.932 17.1615   2
   3  -3   2 13.6319 7.37523   2
   3   3   2 45.2872 27.5564   1
   3   3   3 3604.77 130.915   1
   3   3   4 9915.45 240.815   1
   3   3   5 1860.79 92.6272   1
   3   3   6 299.586 47.3025   1
   3   3   6 317.612 28.8790   4
   3   3   7 2243.87 81.7677   4
   3   3   7 2412.80 113.339   1
   3  -3   8 36.1904 11.3501   2
  -3   3  -8 34.1733 17.4050   4
   3   3   8 6.74676 19.5850   4
   3   3   8 77.5503 21.4128   2
   3   3   8-20.5683 35.2570   1
  -3   3  -9 13972.6 289.493   4
   3  -3   9 13905.3 251.823   2
   3   3   9 14311.8 280.554   2
   3   3   9 14715.1 336.720   1
   3   3   9 14187.0 294.777   4
   3   3  10 37.1010 25.2385   2
   3   3  10 65.7365 35.7886   1
  -3   3 -10 86.4568 25.1061   4
   3  -3  10 137.411 23.7352   2
   3   3  10 110.401 31.0792   4
   3  -3  11 4520.37 125.840   2
   3   3  11 4163.52 167.996   1
   3   3  11 4370.84 141.789   2
   3  -3  12 163.518 33.5552   2
   3   3  12 126.317 35.9732   2
   3   3  12 131.197 44.5631   1
   3   3  13 54.4522 29.9290   2
   3  -3  13 89.9329 29.8827   2
   3   3  13 11.4234 41.4617   1
   3   3  14 436.904 55.1366   2
   3  -3  14 585.395 55.9165   2
   3   3  14 591.079 71.3941   1
   3  -3  15 1302.00 83.1046   2
   3   3  15 978.035 90.8376   1
   3   3  15 1128.71 86.6517   2
   3   3  16 20.6452 36.1353   2
   3  -3  16 97.5338 37.7937   2
   3   3  16 53.3151 46.0741   1
   3   3  17 4089.50 177.593   2
   3   3  17 3931.95 184.822   1
   3  -3  17 4337.50 166.248   2
   3   3  18-17.6201 37.4882   2
   3   3  18-5.27292 43.0483   1
   3  -3  19 70.2436 43.8732   1
   3   3  19 206.599 56.5160   1
   3   3  19 111.903 41.8061   2
   3  -3  20 616.768 86.7519   1
  -3   4  24-79.8994 74.7241   2
  -3   4  23 563.565 116.325   2
  -3   4  22-76.9500 76.6102   2
  -3   4  21 857.948 123.152   2
  -3   4  20-139.357 80.5421   2
  -3   4  19 1797.98 157.887   2
  -3   4  18 6.10017 54.7651   2
  -3   4  17 2491.22 173.508   2
  -3   4  16 615.347 94.8830   2
  -3   4  15 6467.24 267.168   2
  -3   4  14 355.482 69.1342   2
  -3  -4  13 5868.91 112.512   1
  -3   4  13 6630.32 252.644   2
  -3  -4  12 94.7593 13.4957   1
  -3   4  12 38.4867 43.3736   2
  -3   4  12 133.702 60.4203   4
  -3   4  11 4053.94 184.917   4
  -3  -4  11 3849.93 90.4462   1
  -3   4  11 3882.87 178.795   2
  -3   4  10 1959.18 120.958   2
  -3  -4  10 1868.18 59.3178   1
  -3   4  10 1937.38 123.297   4
  -3  -4   9 352.925 25.6943   1
  -3   4   9 434.120 62.5360   4
  -3   4   9 438.399 62.1924   2
  -3   4   8 10687.9 285.046   2
  -3  -4   8 10256.7 195.696   1
  -3   4   8 10623.7 284.428   4
  -3   4   7 75.5452 39.8027   4
  -3  -4   7 53.7292 15.9351   1
  -3   4   7 76.5453 37.6263   2
  -3   4   6 33932.9 626.422   2
  -3   4   6 34432.8 623.934   4
  -3  -4   6 34980.4 549.509   1
  -3   4   5 33857.7 610.513   2
  -3  -4   5 34842.3 550.896   1
  -3   4   5 33823.1 606.926   4
  -3   4   4 8188.68 211.617   2
  -3   4   4 8414.79 209.240   3
  -3  -4   4 8488.17 181.455   1
   3  -4  -4 8499.38 206.328   2
   3  -4  -4 8499.63 207.974   3
  -3   4   4 8326.42 208.821   4
  -3   4   3 15416.1 310.422   2
   3  -4  -3 15832.9 308.135   3
  -3   4   3 14937.5 307.788   3
   3  -4  -3 15570.5 301.823   2
  -3  -4   3 15471.8 288.895   1
  -3   4   3 15436.0 305.808   4
   3  -4  -2 2691.13 94.9690   3
  -3   4   2 2465.39 93.7198   3
   3   4  -2 2570.94 86.5847   1
  -3   4   2 2434.17 91.0076   2
   3  -4  -2 2806.56 91.6666   2
  -3  -4   2 2443.69 88.0092   1
  -3   4   1 4718.30 132.807   3
  -3   4   1 4761.42 125.628   2
  -3  -4   1 4754.02 132.978   1
   3   4  -1 4762.31 130.881   1
   3  -4  -1 4832.10 120.729   2
   3  -4  -1 4691.14 129.488   3
  -3   4   0 362.672 34.7900   3
   3  -4   0 388.396 27.3266   2
   3   4   0 382.933 40.6013   1
  -3  -4   0 376.137 37.7011   1
  -3   4   0 385.863 30.8999   2
  -3   4  -1 853.469 39.9661   2
  -3  -4  -1 881.596 58.9925   1
   3   4   1 1089.89 63.1853   1
   3  -4   1 1004.17 38.4463   2
   3   4   2 9.24336 29.6094   1
  -3  -4  -2-12.0908 26.0849   1
  -3   4  -2 8.39695 10.0491   2
   3  -4   2 7.44090 6.98517   2
  -3  -4  -3 26088.4 467.899   1
   3   4   3 24115.8 457.389   1
   3   4   4 6216.80 178.772   1
   3   4   5 29354.6 536.881   1
   3   4   6 25249.6 483.264   1
   3   4   7 181.034 42.4838   1
   3   4   7 139.519 23.6236   4
   3   4   8 16213.3 319.744   4
   3   4   8 16376.0 307.725   2
   3   4   8 16851.3 367.411   1
   3   4   9 3472.50 122.249   4
   3   4   9 3452.29 112.690   2
   3   4   9 3603.41 145.708   1
   3   4  10 1699.80 103.965   1
  -3   4 -10 1474.09 79.9668   4
   3   4  10 1503.19 75.3684   2
   3   4  10 1545.94 84.7281   4
   3   4  11 5001.00 165.974   4
   3   4  11 4765.77 180.932   1
   3   4  11 4778.62 151.644   2
   3   4  12 523.374 58.6010   4
   3   4  12 617.832 58.6702   2
   3   4  12 533.792 65.4346   1
   3   4  13 4043.77 151.837   2
   3   4  13 3944.89 172.798   1
   3   4  14 155.628 52.0347   1
   3   4  14 175.494 44.1833   2
   3   4  15 2402.78 124.990   2
   3   4  15 2279.42 132.406   1
   3   4  16 1269.10 96.7171   2
   3   4  16 1370.97 106.032   1
   3   4  17 868.815 84.8410   2
   3   4  17 874.193 89.2434   1
   3   4  18 144.406 54.4614   1
   3   4  18 63.7961 43.0795   2
   3   4  19 1126.12 104.968   2
   3   4  19 1154.23 104.365   1
   3  -4  20 23.6716 44.9648   1
  -3   5  24 14.3851 77.6735   2
  -3   5  23 135.074 76.7157   2
  -3   5  22 69.4922 81.8562   2
  -3   5  21-47.9161 59.6855   2
  -3   5  20 7.97156 66.3209   2
  -3   5  19 325.162 87.0637   2
  -3   5  18-10.6719 56.2020   2
  -3   5  17 765.277 104.767   2
  -3   5  16 157.643 62.2095   2
  -3   5  15 684.256 91.5002   2
  -3   5  14-3.67737 58.4736   2
  -3   5  13 149.675 59.3712   4
  -3   5  13 175.000 59.8709   2
  -3   5  12 268.377 65.5971   4
  -3   5  12 184.598 52.4033   2
  -3   5  11 415.448 64.6641   2
  -3   5  11 413.916 65.7738   4
  -3   5  10-6.03017 41.2291   4
  -3   5  10 45.7005 39.5387   2
  -3   5   9 7029.03 230.326   2
  -3   5   9 7271.64 233.737   4
   3  -5  -9 6203.99 116.719   1
  -3  -5   8 100.078 19.8636   1
  -3   5   8 119.797 41.6002   2
  -3   5   8 75.3231 41.3646   4
  -3   5   7 1983.57 108.092   2
  -3  -5   7 2003.32 71.5338   1
  -3   5   7 1924.23 107.538   4
  -3   5   6 43.4502 28.6157   2
  -3  -5   6 33.3179 17.2784   1
  -3   5   6 14.4918 33.4046   4
  -3   5   5 2097.20 99.2468   4
  -3  -5   5 2076.16 76.4635   1
  -3   5   5 2130.31 101.989   3
  -3   5   5 1960.58 97.6150   2
  -3   5   4 16789.5 345.741   2
  -3   5   4 16812.4 346.383   3
  -3  -5   4 17038.7 315.050   1
  -3   5   4 17093.7 343.987   4
   3  -5  -4 17204.2 335.288   2
   3  -5  -3 415.539 40.2913   3
  -3   5   3 396.098 41.4177   2
  -3   5   3 360.522 40.3895   3
  -3  -5   3 394.899 37.1235   1
   3  -5  -3 348.924 34.1806   2
   3  -5  -2 6964.33 176.383   3
  -3   5   2 6735.56 176.281   3
  -3  -5   2 7200.05 171.052   1
   3  -5  -2 7010.40 163.657   2
  -3   5   2 6846.46 171.260   2
   3   5  -1 17618.6 329.274   1
  -3   5   1 17364.2 319.780   2
  -3   5   1 17280.0 336.065   3
  -3  -5   1 17697.7 336.367   1
   3  -5  -1 17554.0 311.700   2
   3  -5  -1 17719.4 332.716   3
  -3   5   0 356.794 37.4346   3
  -3   5   0 435.760 32.3332   2
   3  -5   0 355.943 27.4557   2
   3   5   0 343.081 38.9078   1
  -3  -5   0 348.342 38.4467   1
   3   5   1 622.376 53.8758   1
  -3   5  -1 734.328 49.8850   3
   3  -5   1 651.406 31.8798   2
  -3   5  -1 682.931 34.9810   2
  -3  -5  -1 607.947 52.3449   1
   3   5   2 15.4946 28.2610   1
  -3   5  -2 10.0056 9.50619   2
  -3  -5  -2 8.15125 22.9301   1
  -3   5  -3 4081.30 79.8279   2
   3   5   3 4241.47 139.533   1
   3   5   4 435.530 51.6344   1
   3   5   5 789.889 67.8649   1
   3   5   6 16932.0 359.497   1
   3   5   7 9473.80 248.469   1
   3   5   8 3250.00 112.190   4
   3   5   8 3250.20 136.271   1
  -3   5  -8 3072.44 63.5724   2
   3   5   9 3260.92 119.583   4
   3   5   9 3286.58 140.942   1
  -3   5  -9 3203.52 74.1228   2
   3   5   9 3407.44 114.583   2
   3   5  10-23.0220 25.6317   4
   3   5  10 40.5071 37.8738   1
  -3   5 -10 6.85881 9.95063   2
   3   5  10-31.3343 25.1440   2
   3   5  11 1798.48 112.175   1
   3   5  11 1959.97 100.369   4
  -3   5 -11 1741.61 62.4583   2
   3   5  11 1806.45 90.2675   2
   3   5  12 3589.58 158.162   1
   3   5  12 3456.88 144.296   4
  -3   5 -12 3423.06 96.6034   2
   3   5  12 3257.87 133.259   2
   3   5  13 573.979 62.1055   2
   3   5  13 637.891 73.7746   1
  -3   5 -13 558.445 39.5122   2
   3   5  13 554.792 65.8689   4
   3   5  14 456.357 59.4873   2
   3   5  14 527.531 74.0285   1
   3   5  14 572.316 69.4445   4
   3   5  15 3293.59 152.838   2
   3   5  15 3261.45 160.789   1
   3   5  16 39.4873 33.4967   2
   3   5  16 93.5370 46.3949   1
   3   5  17 5.08911 37.4919   2
   3   5  17 26.7957 42.1244   1
   3   5  18 588.258 75.6621   2
   3   5  18 600.950 78.2033   1
   3   5  19 121.108 48.0866   1
   3   5  19 9.81675 46.2785   2
   3   5  20-75.6091 50.7601   2
  -3   6  23 452.007 110.257   2
  -3   6  22-100.695 74.4650   2
  -3   6  21 1773.83 168.911   2
  -3   6  20 94.7671 59.8170   2
  -3   6  19 1795.39 163.788   2
  -3   6  18 359.728 75.2232   2
  -3   6  17 16.3407 62.1056   2
  -3   6  16 150.055 58.9266   2
  -3   6  15 1291.92 123.422   2
  -3   6  14 2099.01 150.748   2
  -3   6  14 2101.46 154.925   4
  -3   6  13 10086.4 328.491   2
  -3   6  13 10322.2 334.042   4
  -3   6  12 919.579 94.8282   2
  -3   6  12 809.929 95.1337   4
  -3   6  11 3431.55 166.383   2
  -3   6  11 3349.32 167.327   4
  -3   6  10 29.3233 41.1365   2
  -3   6  10 47.6358 41.0653   4
   3  -6 -10 58.0556 11.8280   1
  -3   6   9 4990.21 196.115   2
  -3   6   9 5344.91 201.693   4
  -3   6   8 53.2886 33.9822   2
  -3   6   8-1.94977 34.0235   4
  -3   6   7 2873.45 132.408   2
  -3   6   7 2756.97 129.270   4
  -3  -6   6 74.2147 22.2640   1
  -3   6   6 176.184 45.9429   4
  -3   6   6 98.0612 37.6968   2
  -3  -6   5 90133.9 1364.22   1
  -3   6   5 91405.0 1422.74   3
  -3   6   5 91241.8 1419.43   4
  -3   6   5 91286.4 1417.90   2
  -3  -6   4 11259.0 232.732   1
  -3   6   4 10666.1 259.635   3
  -3   6   4 11078.3 256.691   2
  -3  -6   3 23465.7 422.586   1
   3  -6  -3 23738.1 424.383   2
  -3   6   3 24034.8 437.619   2
  -3   6   3 24200.1 449.413   3
  -3   6   2 4006.47 123.674   2
  -3   6   2 4037.17 131.721   3
  -3  -6   2 3699.10 121.527   1
   3  -6  -2 3970.64 113.247   2
   3  -6  -2 4122.40 129.476   3
   3  -6  -1 1209.89 64.7796   3
  -3   6   1 1171.35 67.1657   3
  -3   6   1 1077.44 57.0982   2
  -3  -6   1 1327.04 70.5728   1
   3  -6  -1 1171.78 53.3592   2
  -3   6   0 293.311 30.6473   2
  -3   6   0 248.858 36.5138   3
  -3  -6   0 233.483 36.1102   1
   3  -6   0 248.446 25.1758   2
  -3   6  -1 6714.96 142.907   2
  -3   6  -1 6424.95 170.886   3
   3   6   1 6815.79 178.386   1
  -3  -6  -1 6906.24 183.841   1
  -3   6  -2 687.698 32.7420   2
   3   6   2 588.647 51.4006   1
   3   6   3 18468.3 364.849   1
  -3  -6  -3 18392.0 294.580   3
  -3   6  -3 17709.0 284.968   2
   3   6   4 47760.5 798.303   1
   3   6   5 92396.4 1435.36   1
   3   6   6 261.525 49.1882   1
   3   6   7 1793.00 96.6560   1
   3   6   8 144.200 37.9484   1
  -3   6  -8 136.878 12.0444   2
   3   6   9 3488.10 148.802   1
   3   6   9 3428.73 125.506   4
   3   6   9 3542.94 119.742   2
   3   6  10 1768.96 105.960   1
   3   6  10 1623.05 84.3723   2
  -3   6 -10 1639.05 54.0507   2
   3   6  10 1625.77 88.8241   4
   3   6  11 11182.8 294.611   1
   3   6  11 11164.2 277.027   4
  -3   6 -11 10253.5 201.044   2
   3   6  11 10592.7 257.269   2
   3   6  12 460.095 66.0194   1
   3   6  12 399.488 49.4728   2
  -3   6 -12 332.412 29.2407   2
   3   6  12 446.784 58.1105   4
   3   6  13 10627.1 294.790   1
  -3   6 -13 9903.97 210.204   2
   3   6  13 11024.4 279.288   2
   3   6  13 10777.4 292.838   4
   3   6  14 2175.22 129.089   1
   3   6  14 2106.85 116.424   2
   3   6  14 1939.40 120.647   4
   3   6  15 285.337 54.3301   2
   3   6  15 271.603 59.4349   4
   3   6  15 233.383 58.8392   1
   3   6  16 418.711 62.4022   2
   3   6  16 339.676 59.7448   1
   3   6  17 363.487 62.4359   2
   3   6  17 422.444 65.0749   1
   3   6  18 393.200 65.3051   2
   3   6  18 371.549 65.5343   1
   3   6  19 1107.34 100.934   1
   3   6  19 1074.92 104.283   2
   3   6  20 25.7202 46.0742   2
  -3   7  23 80.1161 73.6044   2
  -3   7  22 7.88454 70.3846   2
  -3   7  21 21.0507 76.1251   2
  -3   7  20 27.4993 63.2362   2
  -3   7  19-42.2370 71.2881   2
  -3   7  18-47.6893 67.1972   2
  -3   7  17 65.1267 65.2188   2
  -3   7  16 364.613 83.5722   4
  -3   7  16 293.302 68.0926   2
  -3   7  15 132.058 62.2444   4
  -3   7  15 131.484 61.5999   2
  -3   7  14 264.179 70.1749   2
  -3   7  14 312.819 75.3538   4
  -3   7  13 25.2221 54.5186   4
  -3   7  13-39.1768 50.2797   2
  -3   7  12-33.7323 49.3093   2
  -3   7  12 87.5931 57.5521   4
  -3   7  11 277.859 63.3174   4
  -3   7  11 331.998 58.9729   2
   3  -7 -11 361.345 27.1394   1
  -3   7  10 887.203 85.6898   2
   3  -7 -10 931.544 42.6290   1
  -3   7  10 1054.46 94.9010   4
  -3   7   9 49.6606 38.5809   2
  -3   7   9 62.5344 42.3300   4
  -3   7   8-45.9333 42.0077   4
  -3   7   8-24.6886 39.8557   2
  -3   7   7 218.891 43.2350   2
  -3   7   7 234.826 43.0510   4
  -3   7   6 2161.61 109.927   2
  -3   7   6 2029.56 106.503   4
  -3   7   6 2101.30 111.130   3
  -3   7   5 862.911 68.9237   2
  -3   7   5 816.521 68.9771   3
  -3   7   4 370.867 46.6776   2
  -3   7   4 309.738 45.1211   3
  -3  -7   4 351.185 38.0069   1
  -3   7   3 22.6212 26.2439   2
  -3   7   3-33.8966 33.8937   3
  -3  -7   3 12.5096 20.7636   1
   3  -7  -3 34.4679 19.6910   2
  -3   7   2 14039.8 305.068   3
  -3  -7   2 14181.4 294.778   1
   3  -7  -2 14597.8 276.462   2
  -3   7   2 14088.5 287.656   2
  -3   7   1 5684.16 166.724   3
  -3   7   1 5837.23 148.941   2
  -3  -7   1 5819.97 163.496   1
  -3   7   0 727.337 56.8335   3
  -3   7   0 695.421 43.3581   2
  -3   7  -1 1134.28 67.2884   3
  -3   7  -1 907.488 45.8922   2
  -3  -7  -2 15.5632 6.08585   3
   3   7   2 35.4889 28.9282   1
  -3   7  -2 2.01961 12.3882   2
   3   7   3 1581.30 85.4868   1
  -3  -7  -3 1549.02 49.2064   3
  -3   7  -3 1606.08 49.6750   2
  -3  -7  -4 5491.71 125.982   3
  -3   7  -4 5562.71 103.899   2
   3   7   4 5405.10 170.828   1
   3   7   5 46.3748 31.3807   1
  -3   7  -6 1156.65 35.3242   2
   3   7   6 1139.84 79.4584   1
  -3   7  -7 123.262 12.1277   2
   3   7   7 232.656 43.8447   1
  -3   7  -8 0.71103 6.42077   2
   3   7   8-50.1405 39.5589   1
   3   7   9 69.4011 40.5346   1
  -3   7  -9 86.7594 13.6573   2
   3   7  10 4344.24 169.115   1
   3   7  10 4121.74 142.680   2
  -3   7 -10 4092.39 100.381   2
   3   7  10 4299.75 152.994   4
   3   7  11-0.95098 31.2847   4
   3   7  11-24.8932 28.9736   2
  -3   7 -11-36.5342 16.8956   2
   3   7  11 82.9368 44.4651   1
   3   7  12 10.3242 32.4404   4
   3   7  12 21.4597 43.5858   1
   3   7  12 10.9091 31.6994   2
  -3   7 -12-7.66490 16.0951   2
   3   7  13 3014.58 134.163   2
   3   7  13 2987.43 144.115   4
   3   7  13 3067.12 149.413   1
   3   7  14 632.397 74.9885   1
   3   7  14 622.436 73.9864   4
   3   7  14 650.561 70.8514   2
   3   7  15 1239.01 102.673   1
   3   7  15 1320.30 100.845   2
   3   7  15 1409.64 109.079   4
   3   7  16 728.357 80.8658   2
   3   7  16 823.594 85.8302   1
   3   7  16 666.886 80.3549   4
   3   7  17 196.994 53.3526   1
   3   7  17 279.277 58.6446   2
   3   7  18-40.8802 49.3684   2
   3   7  18 8.01071 39.2736   1
   3   7  19-65.7756 50.6832   2
   3   7  19 32.2051 45.9247   1
   3   7  20 161.924 54.4895   2
  -3   8  23 704.744 126.343   2
  -3   8  22 34.1506 75.2254   2
  -3   8  21 966.694 132.017   2
  -3   8  20 99.6645 74.3519   2
  -3   8  19 1509.93 152.175   2
  -3   8  18-31.6679 70.4327   2
  -3   8  17-28.3562 61.1905   2
  -3   8  17 68.2941 65.2370   4
  -3   8  16 140.413 62.6649   4
  -3   8  16-56.6945 67.9767   2
  -3   8  15 52.1708 53.3102   4
  -3   8  15-17.2819 59.9808   2
  -3   8  14 4073.51 212.228   4
  -3   8  14 4149.15 212.690   2
  -3   8  13 13047.9 386.020   2
  -3   8  13 12952.8 392.503   4
  -3   8  12 368.820 72.4846   2
  -3   8  12 322.124 75.6622   4
   3  -8 -12 292.832 26.4068   1
  -3   8  11 14496.9 389.815   2
   3  -8 -11 13785.8 255.696   1
  -3   8  11 14293.0 391.199   4
  -3   8  10 265.040 56.8634   2
  -3   8  10 236.217 60.8179   4
  -3   8   9 2932.15 147.596   2
  -3   8   9 3071.67 152.468   4
  -3   8   8 1229.01 92.9678   2
  -3   8   8 1239.82 93.8747   4
  -3   8   7 6105.04 205.151   4
  -3   8   7 6099.81 204.744   2
  -3   8   6 99.6041 42.3722   3
  -3   8   6 94.3599 37.5586   2
  -3   8   5 32298.6 600.635   3
  -3   8   5 31941.7 588.163   2
  -3   8   4 355.857 43.4744   2
  -3   8   4 260.337 44.4711   3
  -3   8   3 50598.5 855.815   3
  -3  -8   3 50973.1 828.827   1
  -3   8   3 51530.6 833.279   2
  -3   8   2 1471.76 84.1570   3
  -3   8   2 1463.25 74.2213   2
  -3   8   1 860.627 64.6719   3
  -3   8   1 887.177 53.1838   2
  -3   8   0 2.99731 21.1977   2
   3   8   0 26.7580 7.11681   3
  -3   8   0 45.8874 30.8240   3
  -3   8  -1 8037.55 208.830   3
  -3   8  -1 8101.14 171.513   2
  -3   8  -2 14402.6 248.028   2
  -3  -8  -2 13599.3 224.505   3
  -3  -8  -3 44176.2 652.315   3
  -3   8  -3 42156.0 651.787   2
   3   8   4 5695.79 176.322   1
  -3  -8  -4 5737.41 131.555   3
   3   8   5 7413.25 218.180   1
  -3  -8  -5 8434.39 182.390   3
   3   8   6 1020.46 76.4812   1
  -3  -8  -6 1040.94 59.0918   3
  -3   8  -7 8520.64 160.716   2
   3   8   7 9133.38 242.252   1
  -3   8  -8 767.515 35.4073   2
   3   8   8 828.842 72.2880   1
   3   8   9 4903.00 176.816   1
  -3   8  -9 4695.05 109.159   2
   3   8  10 68.9183 33.4594   2
   3   8  10 26.7099 35.9374   1
  -3   8 -10 32.1857 12.4208   2
   3   8  11 5128.86 189.940   1
   3   8  11 5357.75 172.357   2
  -3   8 -11 5047.07 125.057   2
   3   8  11 5370.40 184.922   4
   3   8  12 316.161 50.0321   2
   3   8  12 272.159 47.8755   4
  -3   8 -12 275.348 27.2822   2
   3   8  12 201.853 51.0174   1
   3   8  13 4027.07 174.172   1
   3   8  13 4161.77 166.143   2
   3   8  13 4359.75 176.417   4
   3   8  14 12.1204 38.9286   1
   3   8  14-16.8679 44.8965   2
   3   8  14-11.6084 38.9405   4
   3   8  15 2892.46 147.504   1
   3   8  15 2984.04 149.043   2
   3   8  15 3012.00 159.733   4
   3   8  16 22.3030 39.7066   2
   3   8  16 91.1678 45.4292   4
   3   8  16 92.7375 47.5533   1
   3   8  17 4.25828 39.8099   2
   3   8  17 67.8784 48.0305   4
   3   8  17-15.8048 40.7088   1
   3   8  18 63.9008 42.4413   2
   3   8  18 44.0504 43.9104   1
   3   8  19 1306.23 108.456   1
   3   8  19 1148.84 112.578   2
   3   8  20 20.2069 51.2691   2
   3   8  21 687.241 96.0629   2
  -3   9  23 203.660 84.3292   2
  -3   9  22 108.548 82.5713   2
  -3   9  21 14.3339 70.5758   2
  -3   9  20-29.3237 61.3044   2
  -3   9  19 402.009 90.4536   2
  -3   9  18-88.0838 81.9240   2
  -3   9  18 35.2689 64.4419   4
  -3   9  17 802.899 115.281   4
  -3   9  17 775.553 108.860   2
  -3   9  16 313.403 78.9082   2
  -3   9  16 309.852 80.7593   4
  -3   9  15 289.890 76.2859   4
  -3   9  15 301.225 71.0467   2
  -3   9  14 1011.42 112.003   2
  -3   9  14 1048.68 117.165   4
  -3   9  13 107.591 54.7912   2
  -3   9  13 143.015 66.4010   4
   3  -9 -12 101.303 22.2717   1
  -3   9  12 72.3811 48.3249   2
  -3   9  12 92.4906 54.2194   4
  -3   9  11 109.492 54.1117   4
   3  -9 -11 185.936 27.5600   1
  -3   9  11 220.822 63.5767   2
  -3   9  10 1007.18 93.3817   2
  -3   9  10 808.387 86.0979   4
  -3   9   9 4163.92 180.933   2
  -3   9   9 4168.38 181.361   4
  -3   9   8 46.4075 37.0150   2
  -3   9   8 53.1095 38.2928   4
  -3   9   7 35.7230 35.8918   2
  -3   9   7 26.1973 34.7615   3
  -3   9   6 3696.57 166.649   2
  -3   9   6 4227.99 176.241   3
  -3   9   5 5341.85 185.618   3
  -3   9   5 5451.77 175.706   2
  -3   9   4 964.194 75.8384   3
  -3   9   4 993.453 69.9983   2
  -3   9   3 819.088 75.4609   3
  -3   9   3 825.886 63.1548   2
  -3   9   2 314.572 44.7909   3
  -3   9   2 198.336 33.0352   2
  -3   9   1 279.999 42.4457   3
  -3   9   1 249.543 32.9665   2
  -3   9   0 4782.34 155.744   3
   3   9   0 4618.33 96.8762   3
  -3   9   0 4432.53 125.495   2
  -3   9  -1 109.986 38.3515   3
   3   9   1 49.2393 10.6629   3
  -3   9  -1 66.0152 19.8148   2
  -3   9  -2 275.135 28.1253   2
  -3  -9  -3 6001.40 127.701   3
  -3  -9  -4 1079.63 49.8707   3
  -3  -9  -5 1760.03 71.3901   3
  -3  -9  -6 2265.19 91.9197   3
  -3  -9  -7 2951.19 110.116   3
   3   9   7 2802.86 129.580   1
  -3   9  -7 2825.88 79.5892   2
   3   9   8 151.886 44.8737   1
  -3   9  -8 114.507 17.0427   2
  -3   9  -9 775.704 41.0484   2
   3   9   9 829.919 75.8307   1
  -3   9 -10 252.233 26.6069   2
   3   9  10 172.494 47.5726   1
   3   9  10 230.258 43.8783   2
  -3   9 -11 10.2709 14.3948   2
   3   9  11-48.4385 44.3278   1
   3   9  11-14.3762 35.5364   4
   3   9  11 92.1659 38.4598   2
   3   9  12 777.843 75.9214   4
   3   9  12 726.011 78.4106   1
   3   9  12 724.981 71.1356   2
   3   9  13 409.900 59.9411   4
   3   9  13 313.390 57.2624   1
   3   9  13 334.864 56.2640   2
   3   9  14 1526.30 110.171   1
   3   9  14 1388.80 101.643   2
   3   9  14 1412.36 107.694   4
   3   9  15 1069.48 95.2392   1
   3   9  15 1136.10 97.1080   2
   3   9  15 1095.96 100.460   4
   3   9  16 659.779 80.4050   1
   3   9  16 691.111 81.1758   2
   3   9  16 659.676 83.9177   4
   3   9  17 25.4848 41.5100   2
   3   9  17 106.297 48.1718   4
   3   9  18 129.456 50.9586   2
   3   9  18 168.341 57.6092   4
   3   9  19 266.902 66.3869   2
   3   9  20 86.3519 59.6920   2
   3   9  21 152.527 63.5151   2
  -3  10  22 196.739 82.6701   2
  -3  10  21 713.073 116.462   2
  -3  10  20 102.826 80.1420   2
  -3  10  19 168.975 76.7117   2
  -3  10  18-39.6555 74.2899   2
  -3  10  18 88.7884 64.2586   4
  -3  10  17 82.0707 63.5019   2
  -3  10  17 170.672 72.3386   4
  -3  10  16 246.604 67.7313   2
  -3  10  16 304.568 75.9622   4
  -3  10  15 3912.61 214.001   2
  -3  10  15 3552.80 209.877   4
  -3  10  14 13.6098 64.0495   4
  -3  10  14 41.2035 57.5258   2
  -3  10  13 850.792 101.714   2
  -3  10  13 887.079 102.892   4
  -3  10  12 739.377 88.2691   2
   3 -10 -12 849.659 51.6583   1
  -3  10  12 782.929 94.0296   4
   3 -10 -11 256.427 31.0709   1
  -3  10  11 70.9748 45.1480   2
  -3  10  11 252.056 63.6022   4
  -3  10  10 467.086 70.3898   2
  -3  10  10 294.222 64.7708   4
  -3  10   9 1.00429 39.3276   2
  -3  10   9 32.8674 39.0581   4
  -3  10   8 1452.16 103.907   2
  -3  10   7 2008.95 119.224   3
  -3  10   7 1864.82 112.382   2
  -3  10   6-6.05622 29.2848   2
  -3  10   6-18.6234 37.8268   3
  -3  10   5 4332.96 167.007   3
  -3  10   5 4180.17 154.561   2
  -3  10   4 2003.05 110.595   3
  -3  10   4 1983.88 99.8806   2
  -3  10   3 8426.50 237.436   3
  -3  10   3 8349.21 215.163   2
  -3  10   2 1824.02 100.280   3
  -3  10   2 1829.52 85.4748   2
  -3  10   1 1798.53 98.8270   3
  -3  10   1 1807.20 81.0787   2
  -3  10   0 355.745 47.6424   3
   3  10   0 355.173 25.1344   3
  -3  10   0 368.946 36.8770   2
  -3  10  -1 2980.56 124.359   3
   3  10   1 2789.90 75.3209   3
  -3  10  -1 2901.32 94.7193   2
  -3  10  -2 549.112 38.3717   2
  -3 -10  -3 28403.7 453.863   3
  -3 -10  -4 444.445 32.7667   3
  -3 -10  -5 5983.10 150.362   3
  -3 -10  -6 3621.31 117.218   3
  -3 -10  -7 421.805 43.1698   3
  -3  10  -8 4406.74 114.996   2
  -3  10  -9 375.066 30.4097   2
  -3  10 -10 36.8851 15.9655   2
   3  10  11 6305.26 200.098   2
  -3  10 -11 6044.42 151.644   2
   3  10  12-5.72115 40.2013   4
   3  10  12 63.6238 34.9827   2
   3  10  13 2993.14 142.082   2
   3  10  13 2889.52 148.091   4
   3  10  14 1570.72 110.139   2
   3  10  14 1677.54 116.685   4
   3  10  15 66.4793 48.5672   4
   3  10  15-118.207 53.8441   2
   3  10  16 228.665 55.6435   2
   3  10  16 193.233 55.8821   4
   3  10  17 157.804 56.5325   2
   3  10  17-0.48145 46.3985   4
   3  10  18 92.3940 53.0994   2
   3  10  18 74.1985 50.5438   4
   3  10  19 427.193 78.6805   2
   3  10  19 604.500 93.0663   4
   3  10  20 6.40520 53.6113   2
   3  10  21 514.581 90.0013   2
  -3  11  22 2.18889 75.3996   2
  -3  11  21-66.0316 85.6532   2
  -3  11  20-117.168 75.2156   2
  -3  11  19 1272.72 144.078   2
  -3  11  19 1603.52 162.975   4
  -3  11  18 67.2999 72.9396   4
  -3  11  18 163.621 76.9251   2
  -3  11  17 2325.95 180.661   2
  -3  11  17 2388.97 183.927   4
  -3  11  16 26.4428 61.3711   2
  -3  11  16 128.165 64.8625   4
  -3  11  15 2186.79 166.665   4
  -3  11  15 2268.01 167.213   2
  -3  11  14-35.7736 48.6256   2
  -3  11  14 26.1303 51.8204   4
  -3  11  13 126.846 58.1381   2
  -3  11  13 96.2446 60.7762   4
  -3  11  12 229.811 62.6562   4
  -3  11  12 213.292 63.1047   2
  -3  11  11 889.896 93.9316   4
  -3  11  11 1216.70 108.136   2
  -3  11  10 2221.36 140.857   4
  -3  11  10 2123.72 135.065   2
  -3  11   9 4649.89 195.476   2
  -3  11   8 1699.88 113.170   2
  -3  11   7 6627.56 230.639   3
  -3  11   7 6964.77 226.351   2
  -3  11   6 798.096 79.6147   3
  -3  11   6 767.526 69.8898   2
  -3  11   5 2852.69 137.454   3
  -3  11   5 2676.43 124.346   2
  -3  11   4 46.8281 27.9136   2
  -3  11   4 0.26248 33.9413   3
  -3  11   3 5873.24 196.049   3
  -3  11   3 5992.82 177.964   2
  -3  11   2 8417.05 239.786   3
  -3  11   2 8105.23 207.318   2
  -3  11   1 35449.5 650.089   3
   3  11  -1 35487.8 557.604   3
  -3  11   1 35575.7 601.348   2
   3  11   0 261.066 25.2886   3
  -3  11   0 264.964 47.5506   3
  -3  11   0 353.800 38.8054   2
   3  11   1 33811.5 531.843   3
  -3  11  -1 33613.6 619.680   3
  -3  11  -1 33698.0 558.113   2
   3  11   2 215.775 23.5480   3
  -3 -11  -3 1290.98 54.0243   3
  -3 -11  -4 1385.34 59.7841   3
  -3 -11  -5 1481.69 67.1447   3
  -3 -11  -6 98.8956 23.5209   3
  -3  11  -9 8688.83 192.536   2
  -3  11 -10 646.519 44.2533   2
   3  11  11 3736.47 152.635   2
  -3  11 -11 3507.35 114.168   2
   3  11  12 587.047 66.6687   2
   3  11  13-77.4045 47.5311   4
   3  11  13-3.73159 34.7070   2
   3  11  14 248.054 52.9281   2
   3  11  14 379.764 65.5717   4
   3  11  15 1314.50 109.910   4
   3  11  15 1204.09 103.520   2
   3  11  16 319.282 66.2688   4
   3  11  16 331.912 62.0737   2
   3  11  17 1060.54 103.578   2
   3  11  17 962.206 103.484   4
   3  11  18 340.860 72.5059   2
   3  11  18 297.909 73.4482   4
   3  11  19 332.357 73.8077   2
   3  11  19 478.324 82.0075   4
   3  11  20-34.3964 54.4402   2
   3  11  21-7.86462 51.1995   2
  -3  12  22-57.6742 75.5916   2
  -3  12  21 217.755 90.4103   2
  -3  12  20 179.081 80.7164   4
  -3  12  20 214.132 83.5081   2
  -3  12  19 85.9231 66.6660   2
  -3  12  19 114.860 69.4549   4
  -3  12  18 13.9562 59.9122   4
  -3  12  18 100.480 74.6127   2
  -3  12  17 15.8699 63.6407   2
  -3  12  17 0.07500 59.2341   4
  -3  12  16 194.513 70.5075   2
  -3  12  16 366.337 90.8412   4
  -3  12  15 199.108 75.0443   2
  -3  12  15 236.626 76.4935   4
  -3  12  14 30.0813 57.9291   2
  -3  12  14 96.2352 56.7445   4
  -3  12  13 1161.34 116.267   2
  -3  12  13 1206.30 119.142   4
  -3  12  12 198.219 60.0713   2
  -3  12  12 259.058 68.7573   4
  -3  12  11 875.871 95.2331   2
  -3  12  11 802.801 96.7989   4
  -3  12  10 393.755 69.2648   4
  -3  12  10 356.086 64.8055   2
  -3  12   9 404.883 71.3678   2
  -3  12   8 276.883 56.8037   2
  -3  12   8 276.430 60.2477   3
  -3  12   7 557.120 72.1621   3
  -3  12   7 652.507 72.9037   2
  -3  12   6 134.005 50.3938   3
  -3  12   6 62.7257 33.9667   2
  -3  12   5 2259.08 125.627   3
  -3  12   5 2108.93 111.764   2
  -3  12   4-20.0626 32.8056   2
  -3  12   4 41.7075 37.1174   3
  -3  12   3 2169.90 119.286   3
  -3  12   3 1984.77 98.9008   2
  -3  12   2 1458.60 82.8400   2
  -3  12   2 1416.32 94.7920   3
   3  12  -1 148.342 24.0922   3
  -3  12   1 141.345 42.6355   3
  -3  12   1 153.253 31.5809   2
  -3  12   0 854.886 74.2892   3
   3  12   0 801.900 45.3662   3
  -3  12   0 821.605 57.3663   2
  -3  12  -1 3300.91 139.877   3
   3  12   1 3166.49 93.5551   3
  -3  12  -1 3100.71 106.770   2
  -3  12  -2 1907.39 104.620   3
   3  12   2 1734.20 67.9405   3
  -3 -12  -4 775.203 46.3338   3
  -3 -12  -5 4620.36 133.473   3
  -3 -12  -6 743.917 54.6021   3
  -3  12  -9 2066.67 84.1575   2
  -3  12 -10 271.660 31.7587   2
   3  12  11 87.0313 43.0465   2
   3  12  12 757.558 76.7415   2
   3  12  13-7.86859 43.3316   4
   3  12  13 140.555 50.2744   2
   3  12  14 49.8712 42.1910   2
   3  12  14 96.1889 51.5550   4
   3  12  15 412.947 72.6031   4
   3  12  15 384.123 63.9520   2
   3  12  16 253.796 62.2961   2
   3  12  16 390.596 76.0788   4
   3  12  17-57.0239 54.3283   4
   3  12  17 45.6988 53.8940   2
   3  12  18 430.760 79.6026   4
   3  12  18 425.442 81.7994   2
   3  12  19-51.5182 55.9558   4
   3  12  19 5.18317 52.1563   2
   3  12  20 44.8750 57.2421   2
   3  12  20 4.39468 51.5814   4
   3  12  21 112.365 65.8705   2
   3  12  22 21.2540 59.9120   2
  -3  13  21-102.005 91.2722   2
  -3  13  21-86.2793 81.3703   4
  -3  13  20 146.226 83.9548   4
  -3  13  20-121.520 91.0130   2
  -3  13  19 706.373 117.450   2
  -3  13  19 744.082 124.861   4
  -3  13  18 28.3720 63.6278   2
  -3  13  18 86.6645 76.3118   4
  -3  13  17 2485.89 190.230   2
  -3  13  17 2985.93 208.622   4
  -3  13  16 150.665 77.4015   2
  -3  13  16 144.901 73.8523   4
  -3  13  15 2288.09 169.906   2
  -3  13  15 2225.07 170.923   4
  -3  13  14 308.722 72.5097   2
  -3  13  14 290.695 75.1907   4
  -3  13  13 1167.56 116.053   2
  -3  13  13 928.992 106.460   4
  -3  13  12 221.756 66.1974   2
  -3  13  12 224.501 70.8518   4
  -3  13  11 5183.96 231.551   4
  -3  13  11 5432.10 231.445   2
  -3  13  10 456.092 77.2878   2
  -3  13   9 7567.11 260.934   2
  -3  13   8 7715.28 271.261   3
  -3  13   8 8405.70 266.278   2
  -3  13   7 7005.67 248.531   3
  -3  13   7 7463.67 238.934   2
  -3  13   6 344.658 49.5483   2
  -3  13   6 515.518 71.0576   3
  -3  13   5 2578.86 137.103   3
  -3  13   5 2426.73 122.260   2
  -3  13   4 1496.45 102.964   3
  -3  13   4 1633.17 98.3842   2
  -3  13   3 6806.60 226.959   3
  -3  13   3 6938.35 203.895   2
  -3  13   2 2785.87 138.028   3
  -3  13   2 3005.46 118.898   2
  -3  13   1 17558.5 395.031   3
  -3  13   1 16938.7 348.970   2
   3  13  -1 17011.3 315.321   3
  -3  13   0 8359.96 207.401   2
  -3  13   0 8436.74 248.328   3
   3  13   0 8410.63 185.217   3
  -3  13  -1 9939.40 269.701   3
   3  13   1 9419.15 205.184   3
  -3  13  -2 288.841 52.8823   3
   3  13   2 290.005 31.1830   3
   3  13   3 6793.25 169.321   3
  -3 -13  -4 766.644 47.5142   3
  -3 -13  -5 598.194 45.1347   3
   3  13  11 351.151 58.3171   2
   3  13  12 543.155 70.8003   2
   3  13  13 1230.86 99.6885   2
   3  13  14 594.532 78.0647   4
   3  13  14 718.444 82.8060   2
   3  13  15 3686.17 189.540   4
   3  13  15 3477.07 176.863   2
   3  13  16 94.3258 49.5609   2
   3  13  16 170.053 56.8945   4
   3  13  17 1352.49 119.597   2
   3  13  17 1481.68 130.392   4
   3  13  18 97.9481 64.3664   4
   3  13  18 190.821 65.0052   2
   3  13  19 505.518 86.5183   2
   3  13  19 350.123 79.5402   4
   3  13  20 70.3461 56.1673   2
   3  13  20 104.211 63.7840   4
   3  13  21 51.4463 60.8780   2
   3  13  21 124.191 68.4269   4
   3  13  22 25.0342 53.4290   2
  -3  14  21-117.590 80.6803   2
  -3  14  21 7.42386 80.1793   4
  -3  14  20 26.3984 70.1303   4
  -3  14  20 115.871 79.4274   2
  -3  14  19 112.908 76.3503   2
  -3  14  19-33.3331 66.8469   4
  -3  14  18 123.234 69.4692   2
  -3  14  18 205.398 81.6670   4
  -3  14  17 101.709 65.4408   4
  -3  14  17 65.8591 67.5845   2
  -3  14  16 98.4534 78.7916   4
  -3  14  16-49.1469 69.3835   2
  -3  14  15-15.7257 61.3821   2
  -3  14  15 103.000 74.9546   4
  -3  14  14 152.911 69.2727   2
  -3  14  14 110.131 56.0421   4
  -3  14  13 641.911 93.7534   2
  -3  14  13 809.558 107.373   4
  -3  14  12 858.453 98.6007   2
  -3  14  12 664.985 92.0971   4
  -3  14  11 1176.76 111.978   2
  -3  14  11 1261.45 118.884   4
  -3  14  10-35.7623 46.0527   2
  -3  14   9 753.488 87.9655   2
  -3  14   8-7.86448 39.2780   3
  -3  14   8-6.10458 42.7756   2
  -3  14   7 245.673 58.7205   3
  -3  14   7 256.991 53.5766   2
  -3  14   6 312.968 59.3584   3
  -3  14   6 339.680 54.2765   2
  -3  14   5-30.9447 37.4591   3
  -3  14   5-33.0262 38.4535   2
  -3  14   4 317.715 58.9378   3
  -3  14   4 414.960 54.1118   2
  -3  14   3 848.455 78.7791   3
  -3  14   3 860.007 70.1749   2
  -3  14   2 1893.61 116.014   3
  -3  14   2 2031.11 101.654   2
   3  14  -1 302.718 34.5751   3
  -3  14   1 309.875 53.6609   3
  -3  14   1 338.791 45.4636   2
  -3  14   0 2460.80 131.940   3
   3  14   0 2402.95 91.5402   3
  -3  14   0 2626.24 106.089   2
  -3  14  -1 161.046 47.5296   3
   3  14   1 193.545 29.4137   3
  -3  14  -2 1610.63 104.568   3
   3  14   2 1433.96 70.4384   3
   3  14   3-10.4701 20.3056   3
  -3 -14  -4 91.9354 23.2775   3
  -3 -14  -5 869.933 55.9632   3
   3  14  11 181.554 55.9879   2
   3  14  12 51.8557 43.8173   2
   3  14  13 130.652 49.4547   2
   3  14  14 596.218 83.6558   4
   3  14  14 626.003 80.0292   2
   3  14  15 309.738 64.4527   2
   3  14  15 362.458 72.0272   4
   3  14  16 323.894 70.0820   4
   3  14  16 145.670 53.0399   2
   3  14  17 103.954 55.4458   4
   3  14  17-24.5322 60.2071   2
   3  14  18 463.599 85.4192   4
   3  14  18 741.206 102.003   2
   3  14  19-36.8640 48.6367   2
   3  14  19 10.5890 56.9244   4
   3  14  20 124.170 60.9380   2
   3  14  20 99.4314 65.3721   4
   3  14  21-0.50336 53.9819   2
   3  14  21 71.2323 69.6404   4
   3  14  22 50.9742 63.6491   2
  -3  15  20 50.9678 76.4743   2
  -3  15  20-20.7816 68.8006   4
  -3  15  19 287.445 88.1843   2
  -3  15  19 264.653 74.2129   4
  -3  15  18 51.6578 68.8643   2
  -3  15  18 79.5664 71.7256   4
  -3  15  17 1991.89 176.699   4
  -3  15  17 1641.22 157.037   2
  -3  15  16 36.7023 54.9229   2
  -3  15  16-24.4432 68.4901   4
  -3  15  15 3308.19 212.223   4
  -3  15  15 3463.34 211.130   2
  -3  15  14 154.722 74.1784   2
  -3  15  14 38.5372 61.6528   4
  -3  15  13 31.2532 54.1989   2
  -3  15  13-43.6926 61.1225   4
  -3  15  12 112.079 64.3343   2
  -3  15  12 27.3865 56.3614   4
  -3  15  11 2295.89 154.195   2
  -3  15  10 51.6537 53.0894   2
  -3  15   9 6066.49 237.743   2
  -3  15   8 1563.83 124.428   3
  -3  15   8 1508.21 111.259   2
  -3  15   7 4987.54 214.461   3
  -3  15   7 4972.88 200.185   2
  -3  15   6 494.551 73.6188   3
  -3  15   6 608.151 74.1646   2
  -3  15   5 178.946 41.3512   2
  -3  15   5 183.755 47.9147   3
  -3  15   4 16.5929 47.6096   3
  -3  15   4 16.3320 30.4563   2
  -3  15   3 1904.38 121.014   3
  -3  15   3 2069.10 108.945   2
   3  15  -2 2071.95 87.7737   3
  -3  15   2 2039.61 123.680   3
  -3  15   2 2148.96 107.842   2
   3  15  -1 23704.0 427.941   3
  -3  15   1 23649.8 457.560   2
  -3  15   1 23431.6 509.983   3
   3  15   0 527.883 43.3598   3
  -3  15   0 667.445 57.5707   2
  -3  15   0 622.856 72.0934   3
  -3  15  -1 17719.5 407.961   3
   3  15   1 16511.2 330.849   3
   3  15   2 1095.74 63.6239   3
  -3  15  -2 1258.27 96.8118   3
   3  15   3 3950.06 130.496   3
   3  15  12 528.340 73.2592   2
   3  15  13 224.236 61.1880   2
   3  15  14-13.4412 43.4198   2
   3  15  15 1314.08 113.817   2
   3  15  15 1362.73 121.896   4
   3  15  16 120.580 49.1217   2
   3  15  16 139.484 56.5748   4
   3  15  17 2055.51 149.508   2
   3  15  17 2025.30 157.462   4
   3  15  18 28.2627 54.2017   4
   3  15  18 150.273 67.0154   2
   3  15  19 534.502 89.1685   2
   3  15  19 390.616 80.5603   4
   3  15  20 84.7070 65.4940   2
   3  15  20 48.9462 58.2366   4
   3  15  21 104.154 71.4398   2
   3  15  21 79.1678 65.8656   4
   3  15  22-101.840 71.8932   2
  -3  16  20 29.7825 65.5430   4
  -3  16  20 31.8857 78.5555   2
  -3  16  19 183.352 84.0407   2
  -3  16  19 225.497 85.5816   4
  -3  16  18 1.17839 69.7281   2
  -3  16  18 193.291 90.6637   4
  -3  16  17 23.5448 60.0130   2
  -3  16  17 48.5811 78.4713   4
  -3  16  16 45.3781 56.0660   2
  -3  16  16 74.3703 68.0305   4
  -3  16  15 469.590 90.8474   2
  -3  16  15 529.434 98.7899   4
  -3  16  14 117.316 66.4680   2
  -3  16  14-30.4768 63.0770   4
  -3  16  13 1031.36 122.704   2
  -3  16  13 900.114 111.270   4
  -3  16  12 792.997 103.919   2
  -3  16  12 626.769 99.3461   4
  -3  16  11 3503.97 191.608   2
  -3  16  10 417.762 80.9406   2
  -3  16   9 524.691 89.4738   3
  -3  16   9 268.454 59.8706   2
  -3  16   8 190.313 66.2000   3
  -3  16   8 32.0162 45.0320   2
  -3  16   7 961.535 101.520   3
  -3  16   7 834.385 87.9787   2
  -3  16   6 340.728 59.7356   2
  -3  16   6 389.934 69.7843   3
  -3  16   5 2656.66 151.360   3
  -3  16   5 2745.48 137.532   2
  -3  16   4 558.746 74.4005   3
  -3  16   4 669.543 69.9035   2
  -3  16   3 5862.56 222.278   3
  -3  16   3 5975.15 196.598   2
   3  16  -2 694.757 55.3443   3
  -3  16   2 728.452 67.7868   2
  -3  16   2 639.566 74.1908   3
  -3  16   1 171.131 54.9788   3
   3  16  -1 212.391 33.2941   3
  -3  16   1 257.499 44.7526   2
  -3  16   0 1819.39 119.544   3
   3  16   0 1664.36 81.5386   3
  -3  16  -1 38.9273 36.7285   3
   3  16   1 29.7217 23.3529   3
  -3  16  -2 6465.89 226.065   3
   3  16   2 6207.99 174.098   3
  -3  16  -3 5510.43 206.609   3
   3  16   3 5347.91 161.352   3
   3  16  12 249.441 59.3957   2
   3  16  13 2196.26 139.589   2
   3  16  14 188.124 56.6621   2
   3  16  15 58.7844 49.8224   2
   3  16  15 48.3374 49.4534   4
   3  16  16 282.735 73.6260   4
   3  16  16 187.141 63.9202   2
   3  16  17 67.5478 59.7139   4
   3  16  17-105.257 69.1737   2
   3  16  18 213.716 67.2021   2
   3  16  18 238.441 72.4533   4
   3  16  19 116.403 58.4246   2
   3  16  19 179.939 73.4712   4
   3  16  20 18.3118 62.4209   4
   3  16  20 61.1423 57.7305   2
   3  16  21 314.884 89.8420   2
   3  16  21 247.086 81.0134   4
   3  16  22 71.9260 69.6945   2
  -3  17  19 73.9334 77.9690   4
  -3  17  19 102.763 81.3944   2
  -3  17  18 89.3498 66.7465   2
  -3  17  18 177.340 92.5224   4
  -3  17  17 727.113 111.024   2
  -3  17  17 771.825 124.780   4
  -3  17  16 467.538 94.1349   2
  -3  17  16 449.274 92.6517   4
  -3  17  15 1251.16 134.786   2
  -3  17  15 1023.41 127.870   4
  -3  17  14-8.90218 60.6996   2
  -3  17  14 52.9432 59.2703   4
  -3  17  13 193.691 73.1345   2
  -3  17  13 305.804 88.0839   4
  -3  17  12 476.428 95.9089   2
  -3  17  11 802.034 100.833   2
  -3  17  10 55.5944 47.7385   2
  -3  17   9 1806.60 142.809   3
  -3  17   9 1656.94 125.976   2
  -3  17   8 369.440 70.4152   3
  -3  17   8 256.701 61.6142   2
  -3  17   7 11051.5 350.321   3
  -3  17   7 11539.8 333.804   2
  -3  17   6 552.436 77.9078   3
  -3  17   6 647.262 77.3566   2
  -3  17   5 32.5828 45.4783   3
  -3  17   5 48.6761 36.8283   2
  -3  17   4 81.6471 48.3370   3
  -3  17   4 100.839 43.3920   2
  -3  17   3 7049.12 222.000   2
  -3  17   3 7029.62 254.398   3
  -3  17   2 382.826 63.0802   3
  -3  17   2 468.567 59.1275   2
   3  17  -2 571.812 53.2090   3
   3  17  -1 2582.36 107.342   3
  -3  17   1 2567.36 145.470   3
  -3  17   1 2635.68 122.245   2
  -3  17   0 1805.76 121.859   3
   3  17   0 1881.47 91.5840   3
  -3  17  -1 7482.66 253.534   3
   3  17   1 7304.80 198.019   3
  -3  17  -2 1270.93 101.167   3
   3  17   2 1215.89 74.0592   3
  -3  17  -3 1065.32 96.2450   3
   3  17   3 1023.84 69.4480   3
   3  17   4 1284.30 79.9574   3
   3  17  12 1420.80 115.388   2
   3  17  13 809.576 94.6003   2
   3  17  14 164.246 60.1745   2
   3  17  15 1117.21 111.500   2
   3  17  16 18.9628 53.2235   4
   3  17  16-20.3853 57.8320   2
   3  17  17 810.140 111.153   4
   3  17  17 843.435 107.337   2
   3  17  18 46.4987 59.7808   4
   3  17  18-38.8605 62.5903   2
   3  17  19 250.450 76.6618   2
   3  17  19 263.205 80.5146   4
   3  17  20 34.6998 59.7243   4
   3  17  20 150.428 61.8200   2
   3  17  21 74.4254 66.5582   2
   3  17  21 78.2114 64.6103   4
   3  17  22-14.3782 63.5321   2
  -3  18  19 365.993 100.339   2
  -3  18  19 489.567 113.210   4
  -3  18  18 33.7824 65.3656   2
  -3  18  18 143.713 89.4888   4
  -3  18  17 134.464 69.9203   2
  -3  18  17 45.4430 70.2767   4
  -3  18  16 147.580 79.5539   2
  -3  18  16 37.1330 57.0087   4
  -3  18  15 1385.49 146.245   2
  -3  18  15 1173.97 142.080   4
  -3  18  14 5.83463 62.9069   2
  -3  18  14 86.2098 69.4126   4
  -3  18  13 4063.65 230.670   4
  -3  18  13 4182.89 230.715   2
  -3  18  12 726.647 103.514   2
  -3  18  11 4483.44 226.041   2
  -3  18  10 807.700 94.4660   2
  -3  18   9 264.173 74.5693   3
  -3  18   9 165.568 60.1292   2
  -3  18   8 501.503 86.9263   3
  -3  18   8 563.940 76.7385   2
  -3  18   7 1435.76 126.089   3
  -3  18   7 1445.67 112.657   2
  -3  18   6 1831.27 137.109   3
  -3  18   6 2144.05 130.309   2
  -3  18   5 5029.63 220.385   3
  -3  18   5 5089.12 197.986   2
  -3  18   4 4169.53 197.682   3
  -3  18   4 4324.63 177.360   2
   3  18  -3 5527.20 171.400   3
  -3  18   3 5255.29 222.875   3
  -3  18   3 5435.40 197.922   2
  -3  18   2 504.874 73.4431   3
   3  18  -2 610.126 57.0207   3
  -3  18   2 574.914 67.5362   2
   3  18  -1 2935.66 119.623   3
  -3  18   1 2818.84 157.905   3
  -3  18   1 2942.22 131.492   2
   3  18   0 3016.76 120.850   3
  -3  18   0 3006.01 161.162   3
  -3  18  -1 3874.63 182.915   3
   3  18   1 3742.19 137.923   3
  -3  18  -2 1715.16 121.748   3
   3  18   2 1684.20 91.0917   3
  -3  18  -3 6401.71 235.738   3
   3  18   3 6070.03 186.298   3
   3  18   4 19.1432 25.1696   3
   3  18  12 923.722 97.7752   2
   3  18  13 1419.16 119.609   2
   3  18  14 267.761 66.0786   2
   3  18  15 913.051 104.722   2
   3  18  16 150.184 63.0819   4
   3  18  16 148.455 58.5673   2
   3  18  17 130.975 67.2200   4
   3  18  17 25.6370 55.3611   2
   3  18  18 51.7095 57.5711   2
   3  18  18 262.444 82.3209   4
   3  18  19 786.167 117.567   4
   3  18  19 1005.78 122.274   2
   3  18  20 122.178 68.6033   2
   3  18  20 34.6012 60.9370   4
   3  18  21 42.8125 65.0663   4
   3  18  21 16.7476 62.2197   2
  -3  19  18 118.392 85.8217   4
  -3  19  18 40.9976 60.7182   2
  -3  19  17 125.995 75.9189   2
  -3  19  17 177.407 80.4055   4
  -3  19  16 101.135 64.2863   4
  -3  19  16 99.1077 75.3725   2
  -3  19  15 184.165 80.9328   4
  -3  19  15 119.290 73.4013   2
  -3  19  14 341.043 81.7363   2
  -3  19  14 294.285 82.7321   4
  -3  19  13 9.66885 60.8591   2
  -3  19  12 24.3403 56.8020   2
  -3  19  11 48.9072 60.2247   2
  -3  19  10 535.547 87.1323   2
  -3  19   9 1221.54 128.042   3
  -3  19   9 1191.73 114.239   2
  -3  19   8 1358.09 125.153   3
  -3  19   8 1191.52 107.804   2
  -3  19   7 718.112 85.5726   2
  -3  19   7 679.233 96.3791   3
  -3  19   6 2479.38 159.766   3
  -3  19   6 2638.83 149.249   2
  -3  19   5 1691.28 131.878   3
  -3  19   5 1616.67 116.899   2
  -3  19   4 941.996 99.2070   3
  -3  19   4 1013.93 89.2037   2
  -3  19   3 3390.63 181.816   3
  -3  19   3 3427.06 156.619   2
   3  19  -3 3559.73 138.672   3
  -3  19   2 420.652 74.0111   3
  -3  19   2 496.279 66.3645   2
   3  19  -2 521.592 56.0628   3
   3  19  -1 2031.87 102.166   3
  -3  19   1 1898.92 134.473   3
  -3  19   1 1900.18 109.789   2
  -3  19   0 285.629 60.9981   3
   3  19   0 493.349 52.1133   3
  -3  19  -1-11.8946 46.7010   3
   3  19   1-22.1576 31.1199   3
  -3  19  -2 2088.97 139.711   3
   3  19   2 2302.07 110.464   3
  -3  19  -3 435.551 74.3207   3
   3  19   3 184.919 39.3198   3
  -3  19  -4 107.079 61.6641   3
   3  19   4 20.9002 28.5665   3
   3  19  12 865.262 96.8807   2
   3  19  13 160.971 66.2406   2
   3  19  14 150.082 60.5652   2
   3  19  15 508.220 85.4383   2
   3  19  16 50.7715 57.2720   4
   3  19  16-73.1381 59.1690   2
   3  19  17 282.659 82.4161   4
   3  19  17 191.380 67.1764   2
   3  19  18 127.637 59.6256   4
   3  19  18 20.6613 56.3293   2
   3  19  19 9.70927 57.0072   4
   3  19  19-13.1477 63.0470   2
   3  19  20 94.6355 71.7314   2
   3  19  20 66.4121 63.0391   4
   3  19  21 101.056 72.1017   4
  -3  20  18 219.733 93.7061   2
  -3  20  18 143.728 85.2246   4
  -3  20  17-33.2591 73.6656   2
  -3  20  17-63.2333 79.1125   4
  -3  20  16 56.3185 75.4862   2
  -3  20  16 53.3139 62.9087   4
  -3  20  15 987.880 128.221   2
  -3  20  15 965.553 131.064   4
  -3  20  14 279.980 78.1532   2
  -3  20  14 473.246 101.932   4
  -3  20  13 3082.96 206.953   2
  -3  20  12 853.419 114.400   2
  -3  20  11 2708.78 180.114   2
  -3  20  10 71.0399 58.2772   2
  -3  20   9 316.128 80.4130   3
  -3  20   9 54.6498 56.7561   2
  -3  20   8 693.503 95.8920   3
  -3  20   8 786.417 96.8739   2
  -3  20   7 1678.21 138.347   3
  -3  20   7 1766.20 131.423   2
  -3  20   6 385.617 76.9698   3
  -3  20   6 408.872 68.9058   2
  -3  20   5 5300.88 238.948   3
  -3  20   5 5193.64 208.502   2
  -3  20   4 41.4075 51.1951   3
  -3  20   4 84.6387 43.9175   2
   3  20  -4 188.229 43.3877   3
   3  20  -3 2916.42 128.345   3
  -3  20   3 2963.83 170.700   3
  -3  20   3 2456.91 139.632   2
   3  20  -2 2739.16 124.359   3
  -3  20   2 2508.80 157.951   3
  -3  20   2 2491.97 135.116   2
   3  20  -1 617.734 59.7810   3
  -3  20   1 560.405 77.1820   3
  -3  20   1 739.159 74.8422   2
  -3  20   0-73.5524 63.1915   3
   3  20   0-61.5102 41.1318   3
  -3  20  -1 1923.68 135.052   3
   3  20   1 1895.52 102.678   3
  -3  20  -2 335.266 71.6608   3
   3  20   2 278.850 44.7437   3
  -3  20  -3 320.834 70.0720   3
   3  20   3 170.127 39.7278   3
  -3  20  -4 5077.77 217.286   3
   3  20   4 4582.35 173.271   3
   3  20  12 1636.61 128.292   2
   3  20  13 1459.75 126.705   2
   3  20  14 59.3066 59.4684   2
   3  20  15 845.553 103.263   2
   3  20  16 21.3643 49.9778   2
   3  20  17 115.003 62.0081   2
   3  20  17 60.1816 59.7107   4
   3  20  18-117.573 75.3986   2
   3  20  18 67.5888 64.2043   4
   3  20  19 109.228 68.2725   4
   3  20  19-55.1618 64.9089   2
   3  20  20 93.1082 68.9671   4
  -3  21  17 11.5590 58.6924   2
  -3  21  17 139.553 90.4717   4
  -3  21  16 45.0903 62.9134   2
  -3  21  16-23.1704 74.1112   4
  -3  21  15 198.916 81.0616   4
  -3  21  15 159.934 85.6287   2
  -3  21  14 37.2260 71.7328   2
  -3  21  14 78.0679 78.9256   4
  -3  21  13 84.1142 73.1432   2
  -3  21  12 358.106 89.6341   2
  -3  21  11 100.733 61.7619   2
  -3  21  10 198.654 65.7424   2
  -3  21   9 483.972 90.5211   3
  -3  21   9 263.876 67.2563   2
  -3  21   8-74.4025 65.3095   3
  -3  21   8-13.9369 45.9219   2
  -3  21   7 6.78424 43.3224   2
  -3  21   7 38.0000 55.9294   3
  -3  21   6-19.1476 50.4110   3
  -3  21   6 4.05125 42.2466   2
  -3  21   5 322.937 72.2959   3
  -3  21   5 229.915 60.9639   2
   3  21  -4 401.274 55.1032   3
  -3  21   4 439.023 83.4919   3
  -3  21   4 375.344 66.2280   2
   3  21  -3 299.873 51.3640   3
  -3  21   3 245.047 59.6210   3
  -3  21   3 250.654 57.3112   2
  -3  21   2 345.844 71.2381   3
   3  21  -2 389.104 53.3803   3
  -3  21   2 391.295 63.2471   2
   3  21  -1 53.8498 29.9632   3
  -3  21   1 19.9859 56.1183   3
  -3  21   1 165.681 52.2949   2
  -3  21   0 39.8006 50.7140   3
   3  21   0 30.0952 31.9263   3
   3  21   1 718.944 66.8313   3
  -3  21  -1 731.336 90.3549   3
  -3  21  -2 10.4190 49.7475   3
   3  21   2 33.9562 28.5397   3
  -3  21  -3 453.093 79.2281   3
   3  21   3 592.100 64.4739   3
  -3  21  -4 367.320 74.9778   3
   3  21   4 344.315 54.3571   3
  -3  21  -5 498.087 81.4159   3
   3  21  12 228.958 73.2216   2
   3  21  13 118.319 61.8131   2
   3  21  14 379.225 80.8203   2
   3  21  15 18.5658 54.2858   2
   3  21  16-36.4497 59.1073   2
   3  21  17 38.0397 57.8909   4
   3  21  17-93.6377 70.1850   2
   3  21  18 46.4138 61.4767   4
   3  21  18-0.30142 61.2319   2
   3  21  19 22.0973 60.3273   4
   3  21  20-24.2426 66.2444   4
  -3  22  16 137.342 88.6096   2
  -3  22  16 22.4692 76.6476   4
  -3  22  15 563.737 112.018   2
  -3  22  15 598.733 115.394   4
  -3  22  14 636.351 108.830   2
  -3  22  13 2168.16 176.391   2
  -3  22  12 269.507 80.7895   2
  -3  22  11 841.592 109.604   2
  -3  22  10 16.8755 63.5063   2
  -3  22   9 5.32804 60.9369   2
  -3  22   9 132.101 68.5170   3
  -3  22   8 32.8747 52.9648   2
  -3  22   8 50.5422 60.5510   3
  -3  22   7 416.964 88.7113   3
  -3  22   7 394.384 73.7066   2
  -3  22   6 762.547 101.643   3
  -3  22   6 769.586 91.7061   2
  -3  22   5 6271.17 243.132   2
  -3  22   5 6620.86 278.305   3
   3  22  -4 1866.99 109.984   3
  -3  22   4 1723.01 140.148   3
  -3  22   4 1753.20 124.157   2
  -3  22   3 4072.74 210.481   3
  -3  22   3 3621.78 174.031   2
   3  22  -3 3732.75 157.700   3
   3  22  -2 512.168 60.7361   3
  -3  22   2 374.404 72.3844   3
  -3  22   2 422.078 68.1923   2
   3  22  -1 289.000 49.2831   3
  -3  22   1 230.909 66.4627   3
  -3  22   1 358.562 63.2077   2
  -3  22   0 3168.55 182.401   3
   3  22   0 3351.87 147.790   3
  -3  22  -1 58.4647 56.9532   3
   3  22   1-7.20033 32.1226   3
   3  22   2 1147.40 87.5155   3
  -3  22  -2 1289.58 120.205   3
  -3  22  -3 3000.04 177.854   3
   3  22   3 3027.18 142.449   3
  -3  22  -4 964.011 107.500   3
   3  22   4 826.957 78.4249   3
  -3  22  -5 3035.16 178.234   3
   3  22  12 496.354 89.8115   2
   3  22  13 2091.70 153.759   2
   3  22  14 192.805 68.8337   2
   3  22  15 282.566 82.6640   2
   3  22  16 252.537 79.3996   2
   3  22  17 3.98035 62.0786   2
   3  22  17-35.3571 63.8655   4
   3  22  18 13.5441 69.6077   4
   3  22  18-49.8981 70.3889   2
   3  22  19 336.397 95.6739   4
  -3  23  15 287.794 101.216   4
  -3  23  15 211.750 83.0769   2
  -3  23  14 147.206 81.2935   2
  -3  23  13 148.442 77.1662   2
  -3  23  12 383.402 87.2440   2
  -3  23  11-45.9744 62.2711   2
  -3  23  10 33.6567 54.0150   3
  -3  23  10 30.4451 55.3910   2
  -3  23   9 1329.98 139.962   3
  -3  23   9 1186.34 122.241   2
  -3  23   8-58.5980 67.1216   3
  -3  23   8-0.81500 55.6243   2
  -3  23   7 1039.11 108.257   2
  -3  23   7 1065.79 120.671   3
  -3  23   6-2.07573 47.7374   3
  -3  23   6 22.8623 49.5496   2
   3  23  -5 235.437 53.3700   3
  -3  23   5 265.215 78.7911   3
  -3  23   5 233.733 67.5040   2
   3  23  -4 129.997 43.5080   3
  -3  23   4 117.625 55.0074   2
  -3  23   4 203.630 73.9849   3
   3  23  -3 440.454 61.6114   3
  -3  23   3 491.701 84.4761   3
  -3  23   3 522.417 77.7726   2
   3  23  -2 88.9389 37.2695   3
  -3  23   2-53.7057 69.0284   3
  -3  23   2 137.974 54.4215   2
  -3  23   1 2741.39 176.241   3
  -3  23   1 2781.45 149.091   2
   3  23  -1 2904.72 141.438   3
   3  23   0 461.913 59.9080   3
  -3  23   0 334.884 71.8360   3
  -3  23  -1 1894.78 145.988   3
   3  23   1 2155.52 122.401   3
   3  23   2 11.9987 40.4220   3
  -3  23  -2 57.2663 55.8077   3
  -3  23  -3 595.210 92.2204   3
   3  23   3 609.188 69.2146   3
  -3  23  -4 1417.66 130.730   3
   3  23   4 1223.13 96.8030   3
  -3  23  -5 200.746 70.6749   3
  -3  23  -6 1246.05 121.061   3
   3  23  12 370.135 84.3828   2
   3  23  13 139.271 58.2548   2
   3  23  14 159.109 75.2033   2
   3  23  15 127.248 70.9278   2
   3  23  16 23.8616 54.1869   2
   3  23  17 299.138 90.0049   4
   3  23  17 393.433 92.2528   2
   3  23  18 9.79090 68.2363   4
  -3  24  15 470.341 100.030   2
  -3  24  15 492.108 102.973   4
  -3  24  14 8.51237 57.0899   2
  -3  24  13 580.839 103.513   2
  -3  24  12-91.5462 79.2474   2
  -3  24  11 368.393 88.0837   2
  -3  24  10 97.8023 70.6375   3
  -3  24  10 169.615 68.0106   2
  -3  24   9 38.8460 60.8824   3
  -3  24   9 110.580 64.9483   2
  -3  24   8 97.5479 74.7671   3
  -3  24   8 14.4699 50.2598   2
  -3  24   7 406.988 89.0841   3
  -3  24   7 615.844 93.7919   2
  -3  24   6 164.075 64.8008   3
  -3  24   6 137.057 60.2758   2
   3  24  -6 195.792 51.7710   3
   3  24  -5 797.356 81.1838   3
  -3  24   5 662.575 98.7448   3
  -3  24   5 739.640 93.0484   2
   3  24  -4 120.757 40.9143   3
  -3  24   4-2.26893 58.4363   3
  -3  24   4 39.6368 46.4312   2
   3  24  -3 802.182 80.9334   3
  -3  24   3 850.994 113.551   3
  -3  24   3 910.290 96.3881   2
   3  24  -2 287.699 54.0595   3
  -3  24   2 272.642 69.7543   3
  -3  24   2 429.449 72.5485   2
  -3  24   1 18.1704 52.2834   3
   3  24  -1 20.6224 33.9969   3
  -3  24   1 174.022 57.6730   2
  -3  24   0 2.29948 59.4776   3
   3  24   0 134.172 47.0625   3
  -3  24  -1 151.985 65.9724   3
   3  24   1 95.8697 39.1485   3
  -3  24  -2 62.7377 57.7954   3
   3  24   2 9.76109 33.6404   3
  -3  24  -3 1087.72 120.749   3
   3  24   3 947.087 84.3793   3
  -3  24  -4 641.781 99.6235   3
   3  24   4 658.322 74.5731   3
  -3  24  -5 1638.93 138.292   3
  -3  24  -6 971.938 114.334   3
  -3  24  -7 104.890 60.3909   3
   3  24  12 348.335 85.5831   2
   3  24  13 531.503 95.0814   2
   3  24  14 196.075 73.0600   2
   3  24  15 215.918 79.5009   2
   3  24  16-20.0871 60.1961   2
   3  24  17 150.495 75.0500   4
  -3  25  14 94.7509 73.1364   2
  -3  25  13 59.9691 59.5978   2
  -3  25  12-53.8178 63.5903   2
  -3  25  11-61.1484 79.8753   2
  -3  25  10 371.681 91.3692   3
  -3  25  10 230.393 78.4441   2
  -3  25   9 1448.20 152.979   3
  -3  25   9 1079.96 126.393   2
  -3  25   8 182.262 65.3378   2
  -3  25   8 327.237 92.7821   3
  -3  25   7 4374.11 246.776   3
  -3  25   7 3702.03 208.893   2
  -3  25   6 44.1480 61.8491   3
   3  25  -6 161.800 59.6777   3
  -3  25   6 34.4617 51.4302   2
   3  25  -5 600.391 74.1540   3
  -3  25   5 487.172 92.4666   3
  -3  25   5 515.510 85.2290   2
   3  25  -4 80.1619 41.7625   3
  -3  25   4 100.255 64.0164   3
  -3  25   4 61.8401 50.0949   2
   3  25  -3 369.967 61.6608   3
  -3  25   3 405.924 81.5652   3
  -3  25   3 450.262 73.8150   2
   3  25  -2 395.449 60.1828   3
  -3  25   2 402.536 81.7745   3
  -3  25   2 440.973 79.1254   2
   3  25  -1 4572.97 189.775   3
  -3  25   1 4031.48 190.776   2
  -3  25   1 4325.38 228.574   3
  -3  25   0 702.931 101.549   3
   3  25   0 832.866 84.0750   3
  -3  25  -1 1746.07 147.326   3
   3  25   1 1853.55 119.545   3
  -3  25  -2 371.909 82.9341   3
   3  25   2 327.434 59.8081   3
   3  25   3 891.609 88.3146   3
  -3  25  -3 944.049 113.198   3
  -3  25  -4 26.1526 44.2428   3
   3  25   4 16.1275 37.9435   3
  -3  25  -5 100.435 65.7969   3
  -3  25  -6 1041.24 117.852   3
  -3  25  -7 1906.01 156.799   3
   3  25  12 16.4045 60.8174   2
   3  25  13 73.7022 63.1679   2
   3  25  14 273.780 80.5436   2
  -3  26  13 91.9748 78.4716   2
  -3  26  12-178.433 86.1842   2
  -3  26  11-67.5972 80.1955   2
  -3  26  10 207.562 75.8086   3
  -3  26  10 85.9236 66.3428   2
  -3  26   9 7.84092 65.5521   2
  -3  26   9 73.2157 65.3930   3
  -3  26   8 605.983 96.8856   2
  -3  26   8 489.000 99.4173   3
   3  26  -7 179.781 55.5296   3
  -3  26   7 72.3766 62.9931   3
  -3  26   7 65.6376 53.2495   2
   3  26  -6 76.1169 47.7940   3
  -3  26   6 2.37354 60.3260   3
  -3  26   6 30.8958 48.6701   2
   3  26  -5 610.367 76.7486   3
  -3  26   5 552.303 96.5929   3
  -3  26   5 553.918 89.9405   2
  -3  26   4 154.030 68.8132   3
   3  26  -4 207.921 50.3238   3
  -3  26   4 185.238 62.1418   2
   3  26  -3 0.82570 36.8881   3
  -3  26   3-78.9506 71.6347   3
  -3  26   3 122.203 57.2879   2
   3  26  -2 18.8715 35.4798   3
  -3  26   2 137.192 58.2247   2
  -3  26   2-3.14219 65.6770   3
   3  26  -1 130.333 48.4997   3
  -3  26   1 175.190 59.5725   2
  -3  26   1 157.762 71.6515   3
  -3  26   0 88.5829 63.0453   3
  -3  26  -1 11.6631 59.8728   3
  -3  26  -2 52.9280 60.3381   3
  -3  26  -3 228.482 66.3348   3
  -3  26  -4 22.8917 57.1383   3
  -3  26  -5 125.483 71.1286   3
  -3  26  -6 369.100 92.6151   3
  -3  26  -7 58.3152 56.0288   3
  -3  26  -8 351.143 83.5005   3
   3  26  12 60.5190 70.1847   2
   3  26  13 81.0437 70.4040   2
  -3  27  12-174.456 95.5380   2
  -3  27  11 11.7130 59.7317   2
  -3  27  10 389.903 81.8622   2
  -3  27  10 573.759 108.295   3
  -3  27   9 1115.24 139.046   3
  -3  27   9 1010.90 127.070   2
  -3  27   8 239.101 73.5685   3
  -3  27   8 156.161 67.5932   2
  -3  27   7 1090.88 135.727   3
  -3  27   7 1109.85 121.325   2
  -3  27   6 149.589 64.6010   3
  -3  27   6 103.209 58.3308   2
  -3  27   5 371.759 82.0213   3
  -3  27   5 432.371 84.9105   2
  -3  27   4-65.0792 67.6646   3
  -3  27   4-17.9219 49.5427   2
  -3  27   3 291.016 84.3145   3
  -3  27   3 385.718 79.2228   2
  -3  27   2 600.934 104.271   3
  -3  27   2 731.562 93.6163   2
  -3  27   1 2207.18 172.737   3
  -3  27   1 2313.07 150.350   2
  -3  27   0 320.029 81.0168   3
  -3  27  -1 2897.43 195.199   3
  -3  27  -2 244.317 77.3265   3
  -3  27  -3 524.018 89.4428   3
  -3  27  -4 93.1498 71.3685   3
  -3  27  -5 396.761 85.3454   3
  -3  27  -6 505.556 99.3987   3
  -3  27  -7 1889.55 161.092   3
  -3  27  -8 769.330 117.294   3
  -3  27  -9 2093.44 171.421   3
   3  27  12 239.904 77.8386   2
  -3  28  11 41.1934 57.9602   2
  -3  28  10-107.898 72.4246   2
  -3  28   9 13.5612 71.8655   3
  -3  28   9-28.5930 73.6846   2
  -3  28   8 279.185 101.889   3
  -3  28   8 280.861 82.2042   2
  -3  28   7-50.4702 77.1146   3
  -3  28   7 1.79091 56.5016   2
  -3  28   6 739.684 119.008   3
  -3  28   6 470.622 84.2062   2
  -3  28   5 61.0542 66.5518   3
  -3  28   5 56.7988 58.4200   2
  -3  28   4 213.419 72.6230   3
  -3  28   4 190.783 63.6353   2
  -3  28   3 251.446 76.3101   3
  -3  28   3 429.825 85.4859   2
  -3  28   2-0.07491 52.0513   3
  -3  28   2 137.170 64.6598   2
  -3  28   1 53.7908 54.9357   3
  -3  28   1 132.150 62.5486   2
  -3  28   0 77.9327 67.2094   3
  -3  28   0 228.999 67.6370   2
  -3  28  -1 101.196 69.9210   3
  -3  28  -2 197.660 72.8278   3
  -3  28  -3-6.35597 57.3661   3
  -3  28  -4-11.8695 60.4384   3
  -3  28  -5 60.5590 66.2811   3
  -3  28  -6 109.811 62.1546   3
  -3  28  -7 276.270 84.2954   3
  -3  28  -8 502.786 102.633   3
  -3  28  -9 154.775 76.7235   3
  -3  28 -10 371.786 88.7441   3
  -3  29  10 34.2844 65.0901   2
  -3  29   9 863.494 135.425   3
  -3  29   9 210.341 81.8999   2
  -3  29   8 955.478 135.624   3
  -3  29   8 1002.77 125.245   2
  -3  29   7 678.525 115.158   3
  -3  29   7 602.873 98.4075   2
  -3  29   6 125.315 66.0430   3
  -3  29   6 19.3396 60.9794   2
  -3  29   5 72.3331 63.9132   3
  -3  29   5 194.922 71.9829   2
  -3  29   4 95.5351 81.4677   3
  -3  29   4 30.9436 57.0775   2
  -3  29   3 197.350 76.7745   3
  -3  29   3 287.761 77.3938   2
  -3  29   2 628.562 111.347   3
  -3  29   2 613.554 94.8904   2
  -3  29   1 1316.87 122.858   2
  -3  29   1 945.045 123.991   3
  -3  29   0 85.4269 60.8723   3
  -3  29   0 370.106 78.7268   2
  -3  29  -1 1442.09 149.681   3
  -3  29  -2 110.362 63.6846   3
  -3  29  -3 162.658 72.9936   3
  -3  29  -4-64.3629 58.9450   3
  -3  29  -5 255.937 88.0793   3
  -3  29  -6 114.939 70.5190   3
  -3  29  -7 1378.33 147.849   3
  -3  29  -8 498.254 100.681   3
  -3  29  -9 896.506 127.105   3
  -3  30   9 277.701 97.3186   3
  -3  30   8 66.5780 68.6025   3
  -3  30   8 10.3487 60.5060   2
  -3  30   7 174.349 83.5612   3
  -3  30   7 128.441 69.8254   2
  -3  30   6 215.191 91.0328   3
  -3  30   6 390.423 91.0158   2
  -3  30   5 539.957 104.377   3
  -3  30   5 582.575 96.8714   2
  -3  30   4 514.840 98.8369   3
  -3  30   4 515.466 95.5629   2
  -3  30   3 454.796 102.546   3
  -3  30   3 515.290 91.0631   2
  -3  30   2 221.826 76.9090   2
  -3  30   2-28.0315 75.3623   3
  -3  30   1 155.535 68.2423   3
  -3  30   1 240.400 71.9124   2
  -3  30   0-24.1930 59.5917   3
  -3  30   0 200.429 72.9954   2
  -3  30  -1-9.95391 71.4317   3
  -3  30  -2 649.583 106.810   3
  -3  30  -3 208.162 80.1269   3
  -3  30  -4 26.7339 58.6939   3
  -3  30  -5 454.217 99.9537   3
  -3  30  -6 65.4662 67.9836   3
  -3  30  -7 173.081 83.1079   3
  -3  30  -8 80.1609 78.2848   3
  -3  31   7 210.410 91.7107   3
  -3  31   7 92.4988 77.2582   2
  -3  31   6 238.927 76.6305   2
  -3  31   6 92.8821 67.0518   3
  -3  31   5 94.0232 82.9238   3
  -3  31   5 66.8588 65.2235   2
  -3  31   4-41.1345 76.3148   3
  -3  31   4 97.4829 62.1283   2
  -3  31   3 235.519 77.2511   3
  -3  31   3 376.832 87.9533   2
  -3  31   2-48.2049 71.0837   3
  -3  31   2 185.198 77.3966   2
  -3  31   1 536.332 109.245   3
  -3  31   1 675.630 98.8591   2
  -3  31   0 89.7568 58.8091   3
  -3  31   0 321.168 79.2516   2
  -3  31  -1 536.964 107.717   3
  -3  31  -1 786.755 102.392   2
  -3  31  -2-21.0427 61.7404   3
  -3  31  -3-28.9338 72.5001   3
  -3  31  -4-15.8613 68.3259   3
  -3  31  -5 90.3756 64.4883   3
  -3  31  -6 63.4735 59.2612   3
  -3  32   5 440.144 88.8752   2
  -3  32   4 631.543 117.028   3
  -3  32   4 492.128 96.8973   2
  -3  32   3 633.959 122.518   3
  -3  32   3 586.008 103.670   2
  -3  32   2 108.640 73.8008   3
  -3  32   2 144.074 70.5838   2
  -3  32   1 74.9851 71.0740   3
  -3  32   1 205.754 72.1261   2
  -3  32   0 94.5442 62.9222   3
  -3  32   0 315.494 80.1967   2
  -3  32  -1 126.825 62.7714   2
  -3  32  -1-56.8261 84.4158   3
  -3  32  -2 166.201 73.0567   3
  -3  32  -3 612.466 112.960   3
  -3  33   3 180.287 76.6268   2
  -3  33   2 197.034 72.4879   2
  -3  33   1 80.5310 66.8607   2
  -3  33   0 222.802 75.7690   2
  -3  33  -1 118.661 68.3796   2
  -3  34   1 241.664 75.1955   2
  -3  34   0 148.424 72.0630   2
  -4   0  22 235.380 93.3208   2
  -4   0  21-42.9890 69.7114   2
  -4   0  20 99.3339 78.0059   2
  -4   0  19 3.49330 57.8726   2
  -4   0  18 2468.69 186.342   2
  -4   0  17 123.949 79.0721   2
  -4   0  16 6528.33 288.198   2
  -4   0  15-1.68043 54.7919   2
  -4   0  14 125.407 62.9077   2
  -4   0  13 5.68022 45.2512   2
  -4   0  12 420.413 75.9222   2
  -4   0  11 106.869 60.0981   2
  -4   0  10 11431.1 330.528   2
  -4   0   9-34.6247 40.1347   2
  -4   0   8 20510.5 461.215   2
  -4   0   7 34.4020 38.2687   2
   4   0  -7-24.7138 13.5077   1
  -4   0   6 4968.03 180.396   2
   4   0  -6 4786.64 113.775   1
   4   0  -5-9.55488 17.0767   1
  -4   0   5 4.20851 32.8443   2
   4   0  -5 7.60441 15.7886   3
  -4   0   4 219.235 42.4662   2
   4   0  -4 198.842 26.4418   1
   4   0  -4 241.730 31.5132   3
   4   0  -4 229.544 33.4557   4
   4   0  -3-18.9466 16.8022   3
   4   0  -3 0.62777 24.8024   1
   4   0  -3-13.9227 21.9840   2
   4   0  -3-3.66940 16.0022   4
   4   0  -2 9290.07 196.568   3
  -4   0   2 9481.43 199.919   3
   4   0  -2 9740.19 227.658   2
   4   0  -2 9434.75 206.962   4
  -4   0   1-2.50673 17.1215   3
   4   0  -1-2.81981 20.1056   2
   4   0  -1-12.1350 14.7258   4
   4   0  -1 18.1881 14.4032   3
   4   0   0 1924.43 63.4652   4
   4   0   0 2128.80 84.2817   2
  -4   0   0 2062.96 69.9626   3
   4   0   1 27.2105 20.6684   2
  -4   0  -1 21.4805 15.2092   3
   4   0   1-5.22011 8.89971   4
   4   0   7 13.6888 11.9067   2
   4   0   8 74665.4 1098.93   2
   4   0   9 24.8185 16.5098   2
   4   0  10 14627.5 273.321   2
   4   0  11 2.04757 19.1409   2
   4   0  12 133.087 25.6003   2
   4   0  13-12.1832 23.6753   2
   4   0  14 162.964 52.3911   1
   4   0  14 366.020 43.0199   2
   4   0  15-102.063 59.6486   1
   4   0  15 1.18266 24.6759   2
   4   0  16 3445.70 140.000   2
   4   0  16 3193.49 174.340   1
   4   0  17-8.85796 48.7696   1
   4   0  18 177.738 56.8745   1
   4   0  19-19.9649 56.9317   1
   4   0  20-39.4468 55.0381   1
  -4   1  23 57.2020 72.4588   2
  -4   1  22 111.891 80.3652   2
  -4   1  21-81.9640 77.8201   2
  -4  -1  20 160.086 74.4737   2
  -4   1  20 181.345 77.1548   2
  -4   1  19-4.74916 61.0943   2
  -4  -1  19-4.69036 55.6292   2
  -4  -1  18 30.8749 67.8630   2
  -4   1  18 63.0167 62.9323   2
  -4   1  17 1732.66 154.170   2
  -4  -1  17 2004.90 165.172   2
  -4  -1  16 65.5907 69.9529   2
  -4   1  16 67.2995 67.5139   2
  -4   1  15 20.7273 56.3393   2
  -4  -1  15 109.185 72.0906   2
  -4  -1  14 456.475 83.8340   2
  -4   1  14 444.509 76.6364   2
  -4  -1  13 99.3439 56.1267   2
  -4   1  13 109.398 59.4520   2
  -4   1  12 2238.63 146.796   2
  -4  -1  12 2422.97 150.791   2
  -4   1  11 440.148 75.4585   2
  -4  -1  11 423.106 75.9568   2
  -4  -1  10 72.2556 47.1226   2
  -4   1  10-27.0694 47.6868   2
  -4  -1   9 221.088 62.0693   2
  -4   1   9 230.815 58.9880   2
  -4   1   8 9375.46 275.120   2
  -4  -1   8 8819.97 271.440   2
   4  -1  -7 2602.10 69.8371   1
  -4   1   7 2813.39 137.927   2
  -4  -1   7 2595.82 133.078   2
  -4  -1   6 20278.6 431.071   2
   4   1  -6 19735.0 332.681   1
   4   1  -6 19767.2 390.374   3
  -4   1   6 19744.8 427.888   2
   4  -1  -6 19795.4 333.446   1
   4  -1  -5 4127.01 136.102   3
   4   1  -5 4295.02 133.417   3
   4   1  -5 4437.13 114.619   1
   4  -1  -5 4581.81 117.626   1
  -4   1   5 4228.81 159.367   2
  -4   1   4 146.235 35.6157   2
   4   1  -4 177.258 25.9450   3
   4  -1  -4 181.975 29.5045   3
   4   1  -4 204.046 27.6714   1
   4  -1  -4 153.086 27.0173   4
   4   1  -4 159.213 30.9443   4
   4   1  -3 3062.08 100.920   1
   4  -1  -3 2979.77 115.863   2
   4   1  -3 2853.00 93.4666   3
   4  -1  -3 3063.98 107.970   4
  -4   1   3 2849.63 100.815   3
   4  -1  -3 3009.76 101.173   3
  -4   1   3 3022.31 118.808   2
   4   1  -3 2922.61 107.940   4
   4   1  -2 387.278 41.7242   1
  -4   1   2 419.122 37.3838   3
   4  -1  -2 448.734 36.3614   3
   4   1  -2 405.830 30.8076   3
  -4   1   2 483.731 47.6581   2
   4  -1  -2 420.541 42.3990   2
  -4  -1   2 421.951 32.6526   3
   4  -1  -2 395.812 34.9214   4
   4   1  -2 414.150 37.4528   4
   4   1  -2 360.695 39.9977   2
   4  -1  -1 650.365 41.2162   3
   4   1  -1 646.742 36.0120   3
   4   1  -1 628.105 51.0754   1
  -4   1   1 618.061 41.8250   3
   4  -1  -1 639.306 46.4273   2
  -4  -1   1 563.366 35.1200   3
   4   1  -1 597.114 40.7037   4
   4   1  -1 602.470 49.1270   2
   4  -1  -1 593.326 38.8944   4
  -4  -1   0 362.860 26.7756   3
  -4   1   0 314.080 30.2771   3
   4   1   0 280.035 37.8608   1
   4  -1   0 406.429 36.3584   2
   4   1   0 348.110 28.9275   4
   4   1   0 432.030 39.5832   2
  -4   1  -1 393.791 34.2988   3
   4   1   1 445.021 26.2320   4
   4  -1   1 413.810 33.4599   2
  -4  -1  -1 379.337 27.7252   3
   4  -1   2 772.946 42.1773   2
   4  -1   3 473.882 31.6022   2
   4  -1   7 11618.6 195.367   2
   4  -1   8 1373.36 47.2596   2
   4   1   8 1441.45 54.6662   2
   4  -1   9 240.998 22.9826   2
   4   1   9 236.133 27.4098   2
   4   1  10 2940.21 145.417   1
   4  -1  10 2865.00 86.3911   2
   4   1  10 3039.89 97.3811   2
   4   1  11 1942.52 80.8421   2
   4   1  11 1880.32 120.505   1
   4  -1  11 1875.13 72.2215   2
   4   1  12 146.538 28.0316   2
   4   1  12 102.607 45.8372   1
   4  -1  12 151.747 25.8771   2
   4   1  13 559.144 50.1738   2
   4  -1  13 563.811 46.9478   2
   4   1  13 373.497 57.8296   1
   4   1  14 347.640 43.7342   2
   4   1  14 241.385 55.8847   1
   4  -1  14 408.297 42.1383   2
   4  -1  15 504.981 51.4699   2
   4   1  15 517.106 75.5714   1
   4   1  15 512.371 54.4751   2
   4   1  16 182.815 38.5790   2
   4   1  16 205.953 61.2165   1
   4  -1  16 64.6836 50.1733   1
   4   1  17 1334.74 115.898   1
   4  -1  17 1202.19 114.691   1
   4   1  18 294.421 67.2862   1
   4  -1  18 267.071 59.8610   1
   4  -1  19 46.4321 50.6280   1
   4   1  19-58.9356 54.1288   1
   4  -1  20 58.4195 53.4049   1
   4   1  20 102.141 46.7500   1
  -4   2  23 108.282 77.9672   2
  -4   2  22 54.8073 65.9841   2
  -4   2  21 7.84176 66.2619   2
  -4   2  20 14.2673 66.3025   2
  -4   2  19 160.448 75.7587   2
  -4   2  18 1538.35 149.525   2
  -4   2  17 97.8484 71.6486   2
  -4  -2  16 7450.61 305.988   2
  -4   2  16 7460.06 309.156   2
  -4  -2  15 50.5732 61.0118   2
  -4   2  15-38.4539 60.2146   2
  -4  -2  14 1272.80 120.948   2
  -4   2  14 1208.35 121.236   2
  -4   2  13 146.247 58.1745   2
  -4  -2  13 195.150 73.4424   2
  -4  -2  12 5908.75 239.837   2
  -4   2  12 5454.26 231.148   2
  -4  -2  11 519.783 80.4428   2
  -4   2  11 620.850 82.1904   2
  -4  -2  10 22528.8 518.602   2
  -4   2  10 23172.0 522.725   2
  -4  -2   9 587.341 81.0721   2
  -4   2   9 329.403 57.5935   2
   4  -2  -8 37294.0 555.693   1
  -4   2   8 39435.8 723.246   2
   4  -2  -7 1554.76 52.7566   1
  -4   2   7 1666.82 104.691   2
  -4   2   6 4146.41 160.619   2
   4   2  -6 4115.18 136.904   3
   4   2  -5 813.256 45.5435   1
   4   2  -5 828.660 55.2601   3
  -4   2   5 713.641 66.1773   2
   4   2  -4 95.3327 26.5607   1
   4  -2  -4 27.1814 21.1104   3
   4   2  -4 45.5549 18.4346   3
  -4   2   4 21.4680 25.4151   4
  -4   2   4 87.0107 31.0583   3
   4  -2  -4 29.3776 21.9360   4
  -4   2   4 15.6129 27.9057   2
   4  -2  -3 4741.55 148.191   2
   4  -2  -3 4623.68 134.715   3
   4   2  -3 4458.98 117.684   3
  -4   2   3 4398.07 134.942   3
  -4   2   3 4427.93 136.019   4
   4   2  -3 4652.43 131.555   1
  -4   2   3 4397.02 148.015   2
   4  -2  -2 7068.99 171.016   3
  -4   2   2 6903.75 169.050   4
   4  -2  -2 7164.53 182.716   2
   4   2  -2 7136.36 149.578   3
  -4   2   2 6976.96 173.530   3
   4   2  -2 7093.13 177.344   1
  -4   2   2 7045.47 186.678   2
   4   2  -2 6969.23 189.960   2
   4   2  -1 85.5389 15.6590   3
  -4   2   1 55.7297 24.4884   2
  -4   2   1 44.9302 18.7191   3
   4   2  -1 85.5252 28.5966   1
   4  -2  -1 72.9070 19.5694   2
  -4  -2   1 96.2908 16.3010   3
   4  -2  -1 80.9413 21.3289   3
  -4   2   1 83.5225 21.9276   4
  -4   2   0 2434.29 74.2920   4
   4  -2   0 2364.69 85.1967   2
   4   2   0 2373.10 101.179   1
  -4  -2   0 2421.76 65.4411   3
  -4   2   0 2408.11 85.7956   3
   4  -2   1 1010.81 49.5395   2
   4   2   1 902.856 66.1726   1
  -4  -2  -1 1024.22 38.8380   3
  -4   2  -1 1030.89 54.4030   3
  -4   2  -1 939.058 37.4053   4
   4  -2   2 688.211 37.6642   2
   4   2   2 699.897 59.6681   1
   4   2   3 67.3415 31.4095   1
   4  -2   3 151.018 16.6158   2
   4  -2   4 722.880 29.2320   2
   4   2   4 578.740 56.4631   1
   4   2   5 538.622 56.0742   1
   4   2   5 540.955 24.5536   4
   4   2   6 28453.8 554.195   1
   4   2   6 28382.0 441.520   4
   4   2   7 342.550 56.4804   1
  -4   2  -7 352.577 24.5889   4
   4   2   8 3651.05 99.8650   2
   4  -2   8 3489.37 76.2334   2
   4   2   8 3896.41 160.414   1
  -4   2  -8 3669.06 96.7538   4
   4   2   9 44.1512 39.2262   1
  -4   2  -9 16.8738 14.4743   4
   4  -2   9 27.4715 9.86293   2
   4   2   9 49.2855 19.3212   2
   4  -2  10 9391.95 181.873   2
   4   2  10 8884.45 273.734   1
   4   2  10 9415.61 206.421   2
  -4   2 -10 9308.63 209.175   4
   4   2  11-89.6532 55.5205   1
   4   2  11 33.7304 23.7683   2
   4  -2  11 4.12140 14.2485   2
   4   2  12 1043.80 94.1481   1
   4  -2  12 1061.76 55.8841   2
   4   2  12 1188.73 69.2078   2
   4   2  13 215.300 35.4678   2
   4  -2  13 254.830 32.5521   2
   4   2  13 96.5296 46.5059   1
   4   2  14 1192.20 103.992   1
   4  -2  14 1492.34 76.6880   2
   4   2  14 1425.21 84.3618   2
   4  -2  15 84.7227 28.8414   2
   4   2  15 41.0695 29.3885   2
   4   2  15 17.4657 49.0112   1
   4   2  16 2911.93 133.703   2
   4   2  16 2860.88 162.464   1
   4   2  17 35.4387 48.7746   1
   4  -2  17-113.931 60.7079   1
   4   2  17-33.7424 33.0041   2
   4  -2  18 1608.71 131.953   1
   4   2  18 1916.24 136.985   1
   4  -2  19 48.8820 47.7672   1
   4   2  19 138.967 57.0166   1
   4  -2  20 95.8098 55.4298   1
   4   2  20 84.7489 57.9146   1
  -4   3  23 8.39550 79.4464   2
  -4   3  22 701.918 126.376   2
  -4   3  21-18.3361 63.3835   2
  -4   3  20 1254.60 143.933   2
  -4   3  19-68.6348 69.3845   2
  -4   3  18 1056.27 127.454   2
  -4   3  17-58.1455 70.4296   2
  -4   3  16 255.441 74.7406   2
  -4   3  15 2415.84 169.930   2
  -4   3  14 4566.94 223.603   2
  -4   3  13 5.12169 53.6794   2
  -4   3  12 2260.01 148.556   2
  -4   3  11 142.838 50.6630   2
  -4   3  10 2988.80 158.668   2
  -4   3   9 52.9297 40.2157   2
   4  -3  -8 190.403 16.5457   1
  -4   3   8 223.940 48.1856   2
  -4   3   8 295.530 59.4958   4
  -4   3   7 6111.93 203.938   4
  -4   3   7 6250.00 209.825   2
  -4   3   6 6172.03 202.173   2
  -4   3   6 6157.33 195.915   4
  -4   3   5 151.262 36.8642   2
  -4   3   5 155.145 35.1316   4
   4   3  -4 38103.4 621.258   1
  -4   3   4 38468.7 675.178   2
   4   3  -4 38270.8 622.057   3
  -4   3   4 38688.9 658.232   3
  -4   3   4 38711.1 662.663   4
   4  -3  -3 17.9475 18.1584   3
   4  -3  -3 29.3286 21.6913   2
  -4   3   3 58.2540 26.1199   3
   4   3  -3 29.3925 22.0183   1
   4   3  -3 2.70349 12.7376   3
  -4   3   3-16.0036 25.3690   2
  -4   3   3-5.14443 24.7301   4
   4  -3  -2 2092.93 85.3518   3
  -4   3   2 2117.06 87.7112   3
   4   3  -2 2041.25 63.8308   3
  -4   3   2 1980.40 82.5150   4
  -4   3   2 2188.21 93.8017   2
   4   3  -2 2101.24 87.8678   1
   4  -3  -2 2101.83 87.2413   2
   4  -3  -1 91.3288 23.5164   3
   4   3  -1 103.666 13.5564   3
   4  -3  -1 88.7850 22.1170   2
  -4   3   1 84.2594 23.3765   3
   4   3  -1 83.8609 30.5508   1
  -4   3   1 93.6017 23.3672   4
  -4   3   1 63.1333 25.0616   2
   4   3   0 248.491 38.3598   1
   4  -3   0 262.924 27.7232   2
  -4   3   0 286.584 34.6854   2
  -4  -3   0 295.995 18.6549   3
  -4   3   0 272.611 26.6978   4
  -4   3   0 282.749 32.8399   3
  -4   3  -1 1421.49 68.3852   3
  -4  -3  -1 1326.85 40.3086   3
   4  -3   1 1388.60 56.8472   2
  -4   3  -1 1361.72 49.3574   4
   4   3   1 1449.85 81.5204   1
   4   3   2 8591.06 222.193   1
  -4   3  -2 8094.26 147.682   4
   4  -3   2 8359.86 161.582   2
   4  -3   3 9510.36 167.828   2
   4   3   3 9704.08 248.866   1
   4   3   4 6061.36 190.123   1
   4   3   5 1238.13 83.3693   1
   4   3   6 3081.22 138.572   1
   4   3   6 3086.52 81.5127   4
  -4   3  -6 2952.61 73.7857   4
   4   3   7 2912.60 138.605   1
  -4   3  -7 3036.27 82.1346   4
   4   3   7 3007.35 87.8238   4
   4   3   8 496.517 64.9024   1
  -4   3  -8 357.167 28.9814   4
   4   3   8 397.195 35.5902   4
   4   3   9 4309.57 175.897   1
   4   3   9 4024.58 118.279   2
  -4   3  -9 4008.01 117.450   4
   4   3   9 4263.55 126.036   4
   4   3  10 1152.99 97.4696   1
  -4   3 -10 1160.36 64.0080   4
   4   3  10 1186.91 63.0853   2
   4  -3  11 247.497 24.9155   2
   4   3  11 208.473 53.8864   1
  -4   3 -11 188.523 31.0549   4
   4   3  11 243.764 31.6241   2
   4   3  12 2762.95 149.562   1
   4  -3  12 2878.90 90.5293   2
   4   3  12 2798.46 111.231   2
   4   3  13 327.519 43.8164   2
   4   3  13 288.305 57.1450   1
   4  -3  13 386.990 37.8821   2
   4   3  14 2449.84 114.011   2
   4   3  14 2161.91 135.502   1
   4  -3  14 2372.92 93.9798   2
   4   3  15 1901.05 132.143   1
   4   3  15 1942.33 106.831   2
   4   3  16 458.864 57.9206   2
   4   3  16 351.653 66.8888   1
   4   3  17 64.2753 52.8742   1
   4   3  17 38.2701 35.9539   2
   4   3  18 156.075 55.4485   1
   4  -3  19-18.1738 55.0085   1
   4   3  19 163.832 59.6805   1
   4  -3  20 664.709 92.3633   1
   4   3  20 942.962 105.067   1
  -4   4  23 128.097 89.9143   2
  -4   4  22 348.046 105.511   2
  -4   4  21-28.7932 75.1937   2
  -4   4  20 236.875 80.3926   2
  -4   4  19-21.8054 62.7829   2
  -4   4  18 1146.78 130.436   2
  -4   4  17 10.0698 65.3892   2
  -4   4  16 2001.14 159.658   2
  -4   4  15 409.847 80.7179   2
  -4   4  14 2690.72 170.531   2
  -4   4  13 2134.53 151.341   2
  -4   4  12 3521.28 187.096   2
  -4   4  11 39.7955 53.1392   2
  -4   4  10 2167.71 134.258   4
  -4   4  10 1759.46 123.813   2
  -4  -4  10 2076.73 66.3055   1
  -4  -4   9 200.373 23.8205   1
  -4   4   9 332.400 66.1671   4
  -4   4   9 127.960 41.5683   2
  -4  -4   8 9550.66 196.522   1
  -4   4   8 9225.96 279.203   2
  -4   4   8 9562.97 276.080   4
  -4  -4   7 728.910 44.5932   1
  -4   4   7 746.757 71.9720   4
  -4   4   7 780.724 75.9169   2
  -4   4   6 8424.99 244.241   2
  -4  -4   6 8293.81 187.247   1
  -4   4   6 8353.89 236.833   4
  -4   4   5 17115.5 375.749   2
  -4  -4   5 17077.6 325.184   1
  -4   4   5 16853.4 360.974   3
  -4   4   5 17070.6 363.825   4
  -4   4   4 20735.6 418.791   2
  -4   4   4 20730.3 409.499   3
  -4  -4   4 20623.0 382.365   1
  -4   4   4 20869.2 409.344   4
   4  -4  -3 50.2164 24.4210   2
  -4   4   3 15.1035 24.0396   3
   4   4  -3 39.2620 15.2436   3
   4   4  -3 54.9340 25.6520   1
  -4   4   3 23.7167 25.5455   2
  -4  -4   3-17.3058 24.8392   1
  -4   4   3 40.5249 24.2492   4
  -4   4   2 3392.10 120.247   3
   4   4  -2 3550.23 85.0010   3
  -4   4   2 3547.44 122.454   2
   4   4  -2 3420.04 117.109   1
   4  -4  -2 3576.25 117.639   2
  -4  -4   2 3486.47 120.365   1
   4  -4  -2 3597.84 119.604   3
  -4   4   2 3413.07 113.217   4
   4  -4  -1 205.022 27.7614   2
  -4   4   1 197.486 31.9114   3
   4   4  -1 270.626 39.2154   1
   4   4  -1 198.702 14.8352   3
  -4   4   1 158.301 26.9703   2
  -4  -4   1 193.930 32.3158   1
  -4   4   1 167.004 25.8699   4
   4  -4  -1 217.142 30.2879   3
  -4   4   0 830.760 54.6577   3
   4  -4   0 889.580 47.8585   2
  -4   4   0 829.943 50.5363   2
   4   4   0 951.833 64.3991   1
  -4   4   0 811.897 44.5963   4
   4  -4   1 3339.27 91.5968   2
  -4   4  -1 3382.35 98.8881   2
   4   4   1 3494.40 128.649   1
  -4   4  -1 3329.28 112.497   3
   4   4   2 1623.76 90.7267   1
   4  -4   2 1433.54 49.6597   2
   4  -4   3 2618.56 60.0349   2
   4   4   3 2770.84 120.413   1
   4   4   4 8459.82 236.203   1
   4   4   5 1631.80 99.0069   1
   4   4   6 25.2923 37.9893   1
   4   4   7 268.338 27.7328   4
   4   4   7 279.898 49.5060   1
   4   4   8 6799.46 163.802   4
  -4   4  -8 6943.23 157.976   4
   4   4   8 6715.29 219.561   1
   4   4   9-10.7286 19.0588   4
   4   4   9 10.3233 39.1137   1
   4   4   9 21.1384 22.7300   2
  -4   4  -9 5.26168 15.7080   4
   4   4  10 5762.16 163.330   4
   4   4  10 5294.99 200.340   1
   4   4  10 5118.46 147.843   2
  -4   4 -10 5161.21 149.472   4
   4   4  11 698.647 78.0789   1
   4   4  11 663.591 53.4640   2
  -4   4 -11 728.443 56.3146   4
   4   4  11 788.566 61.9870   4
   4   4  12 1660.84 86.5832   2
   4   4  12 1793.04 120.080   1
   4   4  13 902.046 70.8167   2
   4   4  13 673.869 83.4611   1
   4   4  14 3964.95 152.105   2
   4   4  14 3764.70 181.561   1
   4   4  15 1642.10 124.785   1
   4   4  15 1706.61 103.448   2
   4   4  16 807.307 74.3440   2
   4   4  16 814.516 92.7693   1
   4   4  17-8.31080 34.0242   2
   4   4  17 26.6658 50.7202   1
   4   4  18 249.085 62.9505   1
   4   4  19 432.730 81.2647   1
   4   4  20 101.319 59.3707   1
   4  -4  20-55.7038 64.7121   1
  -4   5  23 168.062 84.9931   2
  -4   5  22 704.444 127.360   2
  -4   5  21-48.9488 78.3616   2
  -4   5  20 1340.16 151.552   2
  -4   5  19-103.858 72.2147   2
  -4   5  18 433.840 94.2398   2
  -4   5  17-45.6352 69.7133   2
  -4   5  16-77.4172 73.9363   2
  -4   5  15 521.965 89.3308   2
  -4   5  14 1759.12 144.400   2
  -4   5  13 1479.51 129.647   2
  -4   5  12 9308.80 314.803   2
  -4  -5  12 8994.16 174.822   1
  -4   5  12 9393.88 311.648   4
  -4   5  11 424.943 72.6618   2
  -4  -5  11 331.604 28.1067   1
  -4   5  11 431.224 78.0611   4
  -4   5  10 1947.26 129.599   2
  -4   5  10 1864.07 126.295   4
  -4  -5  10 1925.24 70.4284   1
  -4   5   9 1179.89 97.2769   2
  -4   5   9 1388.11 105.380   4
  -4  -5   9 1324.33 59.5944   1
  -4   5   8 1812.69 113.451   2
  -4  -5   8 1717.27 71.7734   1
  -4   5   8 1684.02 110.776   4
  -4   5   7 13.5250 35.0068   2
  -4  -5   7 38.7076 20.4058   1
  -4   5   7 22.4603 33.8076   4
  -4   5   6 9656.92 266.179   2
  -4  -5   6 9724.02 216.227   1
  -4   5   6 9854.27 264.971   4
  -4  -5   5 470.318 42.7811   1
  -4   5   5 605.844 62.2689   2
  -4   5   5 547.139 59.6936   3
  -4   5   5 584.142 57.5319   4
  -4   5   4 64332.1 1064.25   2
  -4   5   4 65229.5 1054.04   4
  -4   5   4 65974.9 1060.33   3
  -4  -5   4 66718.4 1028.95   1
  -4   5   3 5133.09 159.439   2
  -4   5   3 4964.95 159.122   3
  -4   5   3 5024.00 151.832   4
  -4  -5   3 5021.26 148.734   1
  -4  -5   2 20911.0 408.658   1
  -4   5   2 20750.2 408.087   3
  -4   5   2 21105.8 401.429   2
   4   5  -2 21067.5 396.152   1
   4   5  -2 21120.6 336.015   3
   4  -5  -2 21611.6 391.692   2
  -4   5   2 21353.7 392.948   4
   4   5  -1 589.446 50.8567   1
  -4   5   1 464.785 45.9808   3
  -4   5   1 485.728 42.8110   2
   4  -5  -1 470.543 36.6877   2
  -4   5   0 312.041 37.5087   3
  -4   5   0 311.965 32.7079   2
   4  -5   0 227.999 26.0737   2
   4   5   0 293.023 41.7702   1
  -4   5  -1 1884.63 86.1773   3
  -4   5  -1 1982.44 72.4485   2
   4   5   1 1955.37 95.7801   1
   4  -5   1 1951.27 64.8408   2
   4   5   2 6639.09 192.112   1
  -4   5  -2 6368.73 137.184   2
   4  -5   2 6335.52 127.763   2
   4   5   3 5377.87 174.288   1
   4   5   4 51316.3 874.126   1
   4   5   5 636.175 65.8276   1
   4   5   6 19608.4 425.059   1
   4   5   7 54.5051 37.4626   1
   4   5   8 1035.56 58.0354   4
   4   5   8 1178.82 95.1608   1
   4   5   9 1387.60 72.7827   4
   4   5   9 1378.93 104.471   1
   4   5  10 7252.57 184.678   2
   4   5  10 7341.62 238.495   1
   4   5  10 6885.76 189.679   4
  -4   5 -10 6939.65 183.898   4
   4   5  11 1289.97 74.7000   2
   4   5  11 1132.02 97.2912   1
   4   5  11 1231.46 77.6548   4
   4   5  12 7359.88 248.741   1
   4   5  12 7086.53 199.522   2
   4   5  12 7129.28 210.169   4
   4   5  13 169.419 41.2438   4
   4   5  13 170.610 58.7695   1
   4   5  13 40.4845 27.7260   2
   4   5  14 3067.53 134.440   2
   4   5  14 3033.69 162.118   1
   4   5  15 93.1283 33.7432   2
   4   5  15 217.253 60.3705   1
   4   5  16 73.8631 33.1003   2
   4   5  16 84.4001 51.6860   1
   4   5  17 148.219 48.9653   2
   4   5  17 144.882 50.1715   1
   4   5  18 784.462 96.4584   1
   4   5  18 895.717 87.2666   2
   4   5  19 30.3573 46.7179   1
   4   5  20 1131.33 112.587   1
  -4   6  22 116.206 77.2428   2
  -4   6  21 42.3591 73.5558   2
  -4   6  20 75.6857 79.1686   2
  -4   6  19 101.462 73.6575   2
  -4   6  18-2.70105 54.6390   2
  -4   6  17 171.449 65.4960   2
  -4   6  16-88.8160 71.0198   2
  -4   6  15 39.0540 58.8537   2
  -4   6  14 272.233 72.2388   2
  -4   6  13 701.282 93.6619   2
  -4   6  13 790.263 102.203   4
  -4   6  12 1932.30 140.113   2
  -4  -6  12 1888.86 71.4448   1
  -4   6  12 2332.44 151.792   4
  -4   6  11 649.019 88.6475   4
  -4  -6  11 655.192 43.4422   1
  -4   6  11 475.242 72.2670   2
  -4   6  10 6984.89 253.802   2
  -4  -6  10 7341.48 171.083   1
  -4   6  10 7294.53 258.023   4
  -4   6   9 84.8767 43.7883   4
  -4   6   9-10.7645 45.8036   2
  -4  -6   9 78.4361 21.4320   1
  -4  -6   8 55.4123 21.2895   1
  -4   6   8 81.2329 43.0033   2
  -4   6   8 11.1346 39.5610   4
  -4  -6   7 370.913 38.0657   1
  -4   6   7 316.303 55.8710   2
  -4   6   7 426.981 60.3886   4
  -4   6   6 10039.1 276.739   2
  -4   6   6 10373.6 272.836   4
  -4   6   6 10164.6 273.820   3
  -4  -6   6 10216.8 229.463   1
  -4   6   5 8698.93 238.123   2
  -4  -6   5 7760.57 198.157   1
  -4   6   5 8390.39 231.043   4
  -4   6   5 8103.28 230.674   3
  -4   6   4 829.618 67.7236   3
  -4   6   4 959.983 71.7513   2
  -4  -6   4 913.149 60.8616   1
  -4   6   4 1073.90 71.2057   4
  -4   6   3 31.8607 28.1833   3
  -4   6   3 80.4364 31.8608   2
  -4   6   3 49.9255 26.5892   4
  -4  -6   3 45.8668 27.7793   1
  -4   6   2 4377.73 140.283   2
  -4   6   2 4586.08 151.204   3
   4   6  -2 4323.03 93.2570   3
   4  -6  -2 4505.23 131.789   2
  -4   6   1 22.3098 24.8867   3
  -4   6   1 10.5483 19.9577   2
   4   6  -1 11.0715 26.7605   1
   4  -6  -1 30.3524 15.1657   2
  -4   6   0 1208.48 72.4235   3
  -4   6   0 1213.06 61.6840   2
   4   6   0 1191.08 77.0273   1
   4  -6   0 1170.90 54.3779   2
  -4   6  -1-10.7480 18.5386   2
   4   6   1 5.38209 27.1247   1
   4  -6   1 27.8404 13.7247   2
  -4   6  -1 9.44634 26.6381   3
  -4   6  -2 2278.25 73.2459   2
   4   6   2 2565.29 113.886   1
  -4   6  -3 1293.92 45.7875   2
   4   6   3 1429.61 91.1314   1
   4   6   4 2064.77 110.073   1
   4   6   5 716.343 71.3251   1
   4   6   6 1496.68 97.9040   1
   4   6   7 433.734 62.6005   1
   4   6   8 88.1927 42.0795   1
   4   6   9 997.187 88.5956   1
   4   6   9 1150.66 67.4090   4
   4   6  10 1406.43 105.782   1
   4   6  10 1557.65 80.2965   2
   4   6  10 1430.69 79.7748   4
   4   6  11 199.626 52.8132   1
   4   6  11 224.960 39.8707   2
   4   6  11 252.063 44.1105   4
   4   6  12 1187.47 103.467   1
   4   6  12 1067.71 74.2867   2
   4   6  12 1336.27 87.2677   4
   4   6  13 1597.09 98.3356   4
   4   6  13 1460.91 115.596   1
   4   6  13 1539.80 91.4586   2
   4   6  14 459.434 59.4548   4
   4   6  14 535.252 78.7221   1
   4   6  14 534.081 59.3706   2
   4   6  15 236.235 48.3748   2
   4   6  15 255.897 60.9736   1
   4   6  16 902.749 94.9006   1
   4   6  16 901.381 81.2328   2
   4   6  17 199.162 48.2278   2
   4   6  17 167.238 58.0355   1
   4   6  18 57.7625 38.5994   2
   4   6  18 167.763 58.7399   1
   4   6  19 146.345 59.2839   1
   4   6  20 37.8354 46.6799   1
  -4   7  22 1432.11 170.194   2
  -4   7  21 82.7690 79.8578   2
  -4   7  20 1649.96 162.956   2
  -4   7  19-102.037 77.1790   2
  -4   7  18 768.148 115.551   2
  -4   7  17 54.9710 56.7307   2
  -4   7  16 1090.91 123.899   2
  -4   7  15-28.8334 64.3901   2
  -4   7  15 89.1791 67.4307   4
  -4   7  14 4168.96 218.110   2
  -4   7  14 3967.59 214.251   4
  -4   7  13 793.689 98.5384   2
  -4   7  13 758.277 98.3795   4
  -4   7  12 6520.79 261.469   2
  -4   7  12 6867.70 266.257   4
  -4  -7  11 1270.40 64.2758   1
  -4   7  11 1321.34 112.184   2
  -4   7  11 1407.69 118.124   4
  -4   7  10 3312.59 169.988   2
  -4  -7  10 3399.19 111.264   1
  -4   7  10 3378.22 172.389   4
  -4  -7   9 657.787 50.4877   1
  -4   7   9 800.417 85.2988   2
  -4   7   9 776.234 82.5823   4
  -4  -7   8 911.920 57.0365   1
  -4   7   8 920.250 85.9281   2
  -4   7   8 819.075 80.3443   4
  -4  -7   7 8.77948 19.1560   1
  -4   7   7 31.8811 36.2229   2
  -4   7   7 21.0753 36.9330   4
  -4   7   6 13271.4 329.740   2
  -4  -7   6 13312.0 283.144   1
  -4   7   6 13551.8 332.296   3
  -4   7   6 13262.0 326.516   4
  -4  -7   5 341.203 43.4092   1
  -4   7   5 386.045 52.9885   2
  -4   7   5 324.097 47.3984   3
  -4   7   5 353.279 51.1978   4
  -4   7   4 33406.3 609.451   2
  -4   7   4 33334.4 615.888   3
  -4   7   3 337.881 46.2173   2
  -4   7   3 253.903 42.7374   3
  -4   7   2 48623.6 802.651   2
  -4   7   2 48752.1 821.905   3
   4  -7  -2 48864.2 780.665   2
  -4   7   1 2518.04 111.754   3
  -4   7   1 2704.69 101.874   2
   4  -7  -1 2658.73 90.1951   2
  -4   7   0 114.981 30.3589   3
   4   7   0 183.505 37.7952   1
  -4   7   0 136.871 25.0995   2
   4  -7   0 174.429 23.5218   2
  -4   7  -1 2042.96 98.4042   3
   4   7   1 2117.13 101.537   1
  -4   7  -1 2018.17 76.6255   2
   4   7   2 17587.7 375.193   1
  -4   7  -2 17737.5 308.605   2
  -4  -7  -3 3077.30 66.5997   3
  -4   7  -3 3104.84 81.1204   2
   4   7   3 3101.87 131.514   1
  -4   7  -4 52774.3 827.604   2
   4   7   4 56858.3 956.207   1
  -4  -7  -4 57331.1 847.694   3
   4   7   5 2818.91 131.704   1
   4   7   6 5338.51 189.904   1
   4   7   7 4543.00 176.034   1
   4   7   8 179.785 47.1469   1
   4   7   9 883.815 82.5421   1
   4   7  10 3580.59 160.682   1
   4   7  10 3510.02 132.347   4
   4   7  11 49.0434 48.1402   1
   4   7  11 15.8913 26.4817   2
   4   7  11 38.1700 30.2087   4
   4   7  12 8706.92 280.633   1
   4   7  12 8908.84 249.143   4
   4   7  12 9105.65 240.059   2
   4   7  13 214.599 41.7374   2
   4   7  13 226.308 47.7985   4
   4   7  13 257.213 60.4727   1
   4   7  14 250.626 61.6873   1
   4   7  14 223.447 45.8713   2
   4   7  14 278.761 50.5811   4
   4   7  15 477.573 65.1856   2
   4   7  15 458.896 66.6109   4
   4   7  15 427.756 69.9997   1
   4   7  16 882.242 92.6907   1
   4   7  16 914.240 86.1242   2
   4   7  17 45.3155 39.3492   2
   4   7  17 69.4322 45.1107   1
   4   7  18 859.117 87.7475   2
   4   7  18 948.487 99.1398   1
   4   7  19 251.973 69.1105   1
   4   7  20 1444.33 124.712   1
  -4   8  22 91.4219 73.4818   2
  -4   8  21 113.040 84.3642   2
  -4   8  20-30.5380 76.1342   2
  -4   8  19-61.0985 65.6744   2
  -4   8  18 834.741 122.357   2
  -4   8  17 28.3540 58.9894   2
  -4   8  16 239.479 71.4960   2
  -4   8  16 303.233 89.1265   4
  -4   8  15-76.5070 69.1543   2
  -4   8  15 23.9172 64.4134   4
  -4   8  14 243.018 73.4398   2
  -4   8  14 203.735 70.6169   4
  -4   8  13 43.3994 50.6973   2
  -4   8  13 41.4604 52.8206   4
  -4   8  12 269.874 69.0999   2
  -4   8  12 277.800 69.0665   4
  -4   8  11 273.079 67.0973   2
  -4  -8  11 275.060 35.5202   1
  -4   8  11 328.067 67.4080   4
  -4   8  10 2184.43 138.962   2
  -4  -8  10 1931.59 86.9991   1
  -4   8  10 2038.63 135.604   4
  -4   8   9 193.203 52.9259   2
  -4  -8   9 178.031 32.7310   1
  -4   8   9 234.741 56.8375   4
  -4   8   8 62.7041 37.3612   2
  -4  -8   8 56.2762 26.3738   1
  -4   8   8 127.730 47.1087   4
  -4   8   7 48.3302 34.5613   2
  -4   8   7 83.7673 41.0180   3
  -4   8   7 7.70577 40.3345   4
  -4   8   6 6121.51 204.849   2
  -4   8   6 5836.08 201.710   4
  -4   8   6 6066.19 208.869   3
  -4   8   5 126.777 39.6680   2
  -4   8   5 9.77293 38.4004   3
  -4   8   4 1901.49 99.8625   2
  -4   8   4 1756.75 103.173   3
  -4   8   3 14364.9 335.178   3
  -4   8   3 14644.2 320.804   2
  -4   8   2 1479.07 91.4594   3
  -4   8   2 1432.28 80.6453   2
  -4   8   1 41.8218 23.3098   2
   4  -8  -1 48.1578 19.9682   2
  -4   8   1-5.73291 29.7546   3
  -4   8   0 864.792 68.6359   3
  -4   8   0 923.520 57.4961   2
  -4   8  -1 65.3310 31.3204   3
  -4   8  -1 15.7088 15.8594   2
  -4   8  -2 13.8854 14.3255   2
   4   8   2 16.9108 30.8004   1
  -4  -8  -3 584.295 23.8406   3
   4   8   3 554.584 62.3191   1
  -4   8  -3 640.998 35.1008   2
  -4  -8  -4 2234.87 66.5203   3
   4   8   4 2262.85 118.095   1
  -4   8  -4 2278.41 62.3592   2
   4   8   5 13245.4 322.345   1
  -4  -8  -5 12833.0 244.242   3
   4   8   6 103.213 49.1208   1
   4   8   7 1332.34 94.4464   1
   4   8   8 943.321 86.1206   1
   4   8   9 399.243 62.0890   1
   4   8  10 215.734 52.7131   1
   4   8  11 43.2093 30.7803   2
   4   8  11-12.6270 29.2631   4
   4   8  11 7.53825 43.0346   1
   4   8  12 532.719 63.9230   4
   4   8  12 514.968 60.3858   2
   4   8  12 432.960 75.8676   1
   4   8  13 2238.55 122.601   4
   4   8  13 2405.95 140.753   1
   4   8  13 2179.97 114.835   2
   4   8  14-15.6949 37.6292   2
   4   8  14 29.9967 44.0813   1
   4   8  14 51.6670 36.4483   4
   4   8  15 33.9595 36.6697   2
   4   8  15 101.698 47.8188   1
   4   8  15 116.994 47.1842   4
   4   8  16 267.871 55.1628   2
   4   8  16 137.538 52.9810   4
   4   8  16 106.713 50.8676   1
   4   8  17 120.091 48.4820   2
   4   8  17 54.1028 50.3363   1
   4   8  18 20.1805 38.7904   2
   4   8  18 97.0806 54.4996   1
   4   8  19 43.5025 46.2880   2
   4   8  19-2.13419 48.3728   1
   4   8  20 97.1671 55.8700   1
  -4   9  22 571.498 121.311   2
  -4   9  21-87.7399 86.9816   2
  -4   9  20 834.030 122.698   2
  -4   9  19 509.111 108.491   2
  -4   9  18 326.485 80.8963   2
  -4   9  17 198.719 83.7259   4
  -4   9  17 135.948 75.9255   2
  -4   9  16 936.163 120.971   4
  -4   9  16 904.049 120.384   2
  -4   9  15 224.334 71.5779   2
  -4   9  15 538.772 100.193   4
  -4   9  14 7690.20 305.980   2
  -4   9  14 7403.40 302.400   4
  -4   9  13 551.687 92.3999   2
  -4   9  13 519.817 91.5255   4
  -4   9  12 4398.65 213.999   2
  -4   9  12 4569.97 217.244   4
  -4   9  11 34.2676 50.6962   2
  -4   9  11 13.9623 49.5652   4
  -4   9  10 358.432 69.2522   2
  -4   9  10 418.847 73.2188   4
  -4   9   9 248.022 55.5365   4
  -4   9   9 288.501 60.1378   2
  -4   9   8 142.283 48.5845   2
  -4   9   8 146.918 46.8070   4
  -4   9   7 25.6077 35.7293   2
  -4   9   7 34.6096 39.7082   3
  -4   9   7-10.2520 39.9646   4
  -4   9   6 4584.39 182.243   3
  -4   9   6 4671.75 179.878   2
  -4   9   5 42.7127 33.6798   2
  -4   9   5 21.7195 34.1435   3
  -4   9   4 18042.9 407.582   3
  -4   9   4 18554.3 394.936   2
  -4   9   3 5685.38 192.554   3
  -4   9   3 5823.65 178.324   2
  -4   9   2 13904.7 329.663   3
  -4   9   2 14273.8 308.705   2
  -4   9   1 32.0915 28.5672   3
  -4   9   1 79.5655 28.5849   2
  -4   9   0 341.519 38.2070   2
  -4   9   0 376.440 51.9252   3
  -4   9  -1 71.2138 22.3172   2
  -4   9  -1 22.6418 31.4999   3
  -4   9  -2 30024.9 554.777   3
  -4   9  -2 29291.6 487.092   2
  -4   9  -3 25.6102 14.9069   2
  -4  -9  -3 20.4821 7.48187   3
  -4  -9  -4 18191.2 306.792   3
   4   9   4 18722.2 406.988   1
  -4   9  -4 18766.5 307.676   2
   4   9   5 2194.82 118.278   1
  -4  -9  -5 2461.19 77.8117   3
  -4   9  -5 2182.01 60.2083   2
   4   9   6 3130.06 143.782   1
  -4  -9  -6 3208.40 102.469   3
  -4  -9  -7 771.856 53.6406   3
   4   9   7 855.223 80.8207   1
   4   9   8 773.134 80.4624   1
   4   9   9 2942.70 150.883   1
   4   9  10 1830.04 119.395   1
   4   9  11 78.7137 37.6929   2
   4   9  11 51.4903 44.3372   1
   4   9  11 4.69739 37.9855   4
   4   9  12 2461.90 125.418   4
   4   9  12 2353.45 141.737   1
   4   9  12 2481.12 120.916   2
   4   9  13 3472.75 156.105   4
   4   9  13 3261.98 166.137   1
   4   9  13 3422.30 146.360   2
   4   9  14 1407.13 101.812   4
   4   9  14 1245.12 105.160   1
   4   9  14 1279.11 93.7006   2
   4   9  15 431.902 63.0702   4
   4   9  15 560.028 78.6716   1
   4   9  15 426.319 61.0484   2
   4   9  16 7.35420 45.0557   1
   4   9  16-29.0746 43.6547   4
   4   9  16 40.3898 42.5149   2
   4   9  17 145.226 52.3165   2
   4   9  17 277.230 65.3237   1
   4   9  17 224.323 56.7969   4
   4   9  18 126.088 54.8523   1
   4   9  18 67.2128 44.0437   2
   4   9  19-84.4773 52.7507   2
   4   9  19-28.6227 45.8624   1
  -4  10  21 43.8631 74.9438   2
  -4  10  20 534.070 113.748   2
  -4  10  19-2.87110 68.6848   2
  -4  10  18 777.335 119.128   2
  -4  10  18 986.106 136.341   4
  -4  10  17-25.9891 58.1647   2
  -4  10  17 37.0794 61.4162   4
  -4  10  16 686.821 105.491   2
  -4  10  16 895.634 119.893   4
  -4  10  15 16.0131 61.6905   2
  -4  10  15 88.1046 60.4104   4
  -4  10  14 939.890 115.184   2
  -4  10  14 966.945 112.149   4
  -4  10  13 614.088 94.3990   4
  -4  10  13 613.274 92.8828   2
  -4  10  12 903.232 103.807   4
  -4  10  12 888.002 102.498   2
  -4  10  11 110.426 56.3726   4
  -4  10  11 144.568 56.2483   2
  -4  10  10 761.690 88.6616   2
  -4  10  10 758.382 89.0055   4
  -4  10   9 123.686 49.0785   2
  -4  10   9 56.2567 48.8548   4
  -4  10   8 5403.50 212.108   4
  -4  10   8 5292.74 207.759   2
  -4  10   7 632.237 74.4701   2
  -4  10   7 613.344 76.9898   3
  -4  10   6 8079.82 253.683   3
  -4  10   6 7896.58 246.150   2
  -4  10   5 501.210 63.6288   3
  -4  10   5 601.845 65.8528   2
  -4  10   4 116.187 35.8663   2
  -4  10   4 55.5058 35.1224   3
  -4  10   3 168.543 39.7828   2
  -4  10   3 220.374 49.7375   3
  -4  10   2 12525.9 312.328   3
  -4  10   2 12469.8 286.524   2
   4  10  -1 13.9234 7.33857   3
  -4  10   1-19.9198 35.5941   3
  -4  10   1 18.9892 22.3150   2
  -4  10   0 13636.9 282.593   2
  -4  10   0 13189.7 320.343   3
  -4  10  -1 3364.76 141.216   3
  -4  10  -1 3330.87 109.855   2
  -4  10  -2 3973.00 150.119   3
  -4  10  -2 3569.02 107.601   2
  -4  10  -3 1341.50 59.4627   2
  -4 -10  -4 105.355 15.0179   3
  -4  10  -4 149.475 18.7604   2
  -4 -10  -5 5080.41 123.256   3
  -4  10  -5 4668.22 106.964   2
   4  10   6 3544.54 155.136   1
  -4 -10  -6 3343.62 106.812   3
  -4  10  -6 3215.84 75.4948   2
  -4 -10  -7 747.920 52.0924   3
   4  10   7 781.797 77.5951   1
  -4  10  -7 626.689 27.4618   2
  -4  10  -7 658.399 25.2649   2
   4  10   8 2119.83 123.518   1
   4  10   9 1407.44 103.499   1
   4  10  10 1722.73 118.748   1
   4  10  11 2649.17 145.292   1
   4  10  11 2574.32 121.665   2
   4  10  12 162.603 53.9021   1
   4  10  12 183.356 48.1828   2
   4  10  12 115.393 35.9690   4
   4  10  13 791.512 89.0528   1
   4  10  13 670.563 71.5025   2
   4  10  13 596.290 68.5685   4
   4  10  14 418.981 69.3672   1
   4  10  14 407.704 61.2203   2
   4  10  14 417.576 62.3123   4
   4  10  15 253.155 64.0359   1
   4  10  15 212.344 50.5802   2
   4  10  15 239.623 56.9184   4
   4  10  16 1122.60 106.791   1
   4  10  16 1088.09 99.6117   4
   4  10  16 997.181 91.7158   2
   4  10  17 87.5715 49.7423   2
   4  10  17 85.8005 45.2017   4
   4  10  18 234.214 56.1302   2
   4  10  18 271.643 68.3393   4
   4  10  19 40.2461 47.0363   2
  -4  11  21-89.2875 84.2017   2
  -4  11  20 101.808 71.8938   2
  -4  11  19-104.096 75.9825   2
  -4  11  18 56.0488 62.4059   4
  -4  11  18-7.91113 57.7319   2
  -4  11  17 13.1493 66.9085   2
  -4  11  17 64.6847 73.2739   4
  -4  11  16 862.459 117.000   4
  -4  11  16 700.877 108.210   2
  -4  11  15 108.548 60.2393   2
  -4  11  15 222.474 76.6520   4
  -4  11  14 575.228 92.8119   2
  -4  11  14 720.629 100.614   4
  -4  11  13 83.1113 54.5873   2
  -4  11  13 110.881 54.9853   4
  -4  11  12 1665.88 136.755   4
  -4  11  12 1799.48 138.866   2
  -4  11  11 2309.20 152.864   2
  -4  11  11 2273.29 152.329   4
  -4  11  10 917.951 96.4133   2
  -4  11  10 808.101 93.5028   4
  -4  11   9 1188.20 104.420   4
  -4  11   9 1203.42 102.643   2
  -4  11   8 115.684 47.8327   2
  -4  11   8 101.714 47.9615   3
  -4  11   8 106.210 49.1201   4
  -4  11   7 40.3120 40.6425   2
  -4  11   7 14.6402 38.1132   3
  -4  11   6 1841.49 121.540   3
  -4  11   6 2035.61 117.771   2
  -4  11   5 1336.72 99.4312   3
  -4  11   5 1309.33 91.9292   2
  -4  11   4 3570.36 159.780   3
  -4  11   4 3824.99 150.410   2
  -4  11   3 803.371 78.5406   3
  -4  11   3 887.829 71.6274   2
  -4  11   2 3241.46 146.510   3
  -4  11   2 3388.41 132.233   2
   4  11  -1 3182.96 77.0831   3
  -4  11   1 3185.69 142.677   3
  -4  11   1 3214.87 120.479   2
  -4  11   0 180.769 48.6895   3
   4  11   0 159.383 14.2745   3
  -4  11   0 118.715 25.6085   2
  -4  11  -1 972.251 80.5648   3
  -4  11  -1 893.777 56.9753   2
  -4  11  -2 5564.55 190.586   3
  -4  11  -2 5508.27 144.244   2
  -4  11  -3 529.476 38.2463   2
  -4 -11  -4 5528.00 123.732   3
  -4  11  -4 5660.14 131.011   2
  -4 -11  -5 162.202 22.1325   3
  -4  11  -5 174.535 20.4919   2
  -4 -11  -6 2299.92 84.8606   3
  -4  11  -6 2217.53 64.4230   2
  -4 -11  -7 562.703 46.0871   3
  -4  11  -7 538.996 27.1476   2
  -4  11  -8 37.4421 10.5481   2
  -4  11  -9 522.511 25.6208   2
   4  11  12 732.750 72.7897   2
   4  11  13 444.192 61.2701   2
   4  11  13 419.661 65.2361   4
   4  11  14 108.374 42.4019   4
   4  11  14 103.166 42.3959   2
   4  11  15 254.109 55.6796   2
   4  11  15 279.433 59.9080   4
   4  11  16 70.7078 48.0068   4
   4  11  16 42.8260 45.2147   2
   4  11  17 302.454 61.9799   4
   4  11  17 365.153 66.8027   2
   4  11  18 86.1656 51.3643   2
   4  11  18 10.1722 49.7429   4
   4  11  19 225.842 62.4741   2
   4  11  19 95.1600 56.0119   4
  -4  12  21-38.4698 97.7985   2
  -4  12  20 338.131 92.7601   2
  -4  12  19 128.352 66.8967   2
  -4  12  19 221.073 90.6140   4
  -4  12  18 1582.43 159.842   2
  -4  12  18 1278.22 151.473   4
  -4  12  17 125.711 82.5247   4
  -4  12  17 3.01673 65.5986   2
  -4  12  16 2903.26 199.899   2
  -4  12  16 2991.82 209.492   4
  -4  12  15-41.3223 67.4987   2
  -4  12  15 67.9886 67.0223   4
  -4  12  14 998.706 117.057   2
  -4  12  14 1112.16 126.368   4
  -4  12  13-63.9952 55.5850   2
  -4  12  13 25.9927 60.6012   4
  -4  12  12 183.228 64.2224   2
  -4  12  12 255.007 64.3463   4
  -4  12  11 16.3827 44.1965   2
  -4  12  11-40.2873 59.8073   4
  -4  12  10 5254.86 229.542   4
  -4  12  10 5227.73 227.309   2
  -4  12   9 1903.23 131.622   2
  -4  12   9 2107.02 140.347   4
  -4  12   8 7463.64 271.389   3
  -4  12   8 7806.59 266.462   2
  -4  12   7 1355.49 109.656   3
  -4  12   7 1609.08 112.845   2
  -4  12   6 6441.66 232.076   3
  -4  12   6 6080.84 215.701   2
  -4  12   5 325.696 51.8784   2
  -4  12   5 280.487 54.8489   3
  -4  12   4 2046.89 124.914   3
  -4  12   4 2018.58 112.829   2
  -4  12   3 7763.31 223.079   2
  -4  12   3 7853.86 247.412   3
  -4  12   2 15899.8 381.259   3
  -4  12   2 15700.8 345.330   2
  -4  12   1 3696.65 160.107   3
   4  12  -1 3638.27 90.5913   3
  -4  12   1 3696.56 133.607   2
  -4  12   0 30281.6 602.157   3
   4  12   0 30556.1 477.556   3
  -4  12   0 31650.2 547.330   2
  -4  12  -1 626.907 68.4325   3
  -4  12  -1 644.335 49.8625   2
  -4  12  -2 10607.3 286.271   3
  -4  12  -2 10588.5 228.687   2
  -4  12  -3 97.8712 24.1124   2
  -4 -12  -4 358.600 28.3119   3
  -4  12  -4 427.684 35.5295   2
  -4 -12  -5 1151.82 56.1192   3
  -4  12  -5 1235.29 53.6461   2
  -4 -12  -6 2218.11 86.5549   3
  -4  12  -6 2404.93 72.0510   2
  -4 -12  -7 7.31769 17.4825   3
  -4  12  -8 5874.07 131.862   2
   4  12  12 103.951 43.0216   2
   4  12  13 435.162 64.5668   2
   4  12  13 396.865 63.2601   4
   4  12  14 977.705 93.2033   4
   4  12  14 844.347 84.7492   2
   4  12  15 609.699 77.1326   2
   4  12  15 695.838 85.3352   4
   4  12  16 1925.46 133.964   2
   4  12  16 2148.15 143.758   4
   4  12  17 190.142 56.9087   4
   4  12  17 36.1926 44.2094   2
   4  12  18 833.348 98.3349   2
   4  12  18 896.569 107.457   4
   4  12  19 142.059 60.2623   2
   4  12  19-9.62263 46.7600   4
   4  12  20 166.411 62.7079   2
  -4  13  20-110.333 90.2218   2
  -4  13  20-41.5240 70.0399   4
  -4  13  19-16.9298 58.5055   2
  -4  13  19 74.0173 69.1256   4
  -4  13  18 61.6917 71.9220   2
  -4  13  18 7.04565 72.3037   4
  -4  13  17 224.944 81.1380   2
  -4  13  17 167.195 74.7019   4
  -4  13  16 1.28670 64.5656   4
  -4  13  16 18.2010 69.2084   2
  -4  13  15 316.758 78.9420   4
  -4  13  15 181.883 75.2941   2
  -4  13  14 511.718 92.3946   2
  -4  13  14 592.476 96.0942   4
  -4  13  13 395.947 81.0271   2
  -4  13  13 377.690 82.6684   4
  -4  13  12 219.325 65.0054   2
  -4  13  12 177.578 60.6522   4
  -4  13  11 62.8819 56.3052   2
  -4  13  11-8.74000 50.5252   4
  -4  13  10 72.7749 53.0055   2
  -4  13  10 39.5749 52.8675   4
  -4  13   9 157.627 60.9852   2
  -4  13   8 43.0292 46.7537   2
  -4  13   8 20.0670 48.3731   3
  -4  13   7 29.2534 43.1734   2
  -4  13   7 2.76756 38.4325   3
  -4  13   6 115.643 43.8016   2
  -4  13   6 134.930 53.2837   3
  -4  13   5 23.5951 34.7658   2
  -4  13   5 15.3386 42.2137   3
  -4  13   4-23.1822 40.6341   3
  -4  13   4-12.5139 32.9187   2
  -4  13   3 1450.40 106.275   3
  -4  13   3 1765.42 99.5576   2
  -4  13   2 245.554 39.4240   2
  -4  13   2 401.367 61.8594   3
   4  13  -2 321.949 28.7084   3
   4  13  -1 585.212 36.1557   3
  -4  13   1 524.357 66.0550   3
  -4  13   1 562.315 54.7055   2
  -4  13   0 92.3060 43.6216   3
   4  13   0 80.2381 15.9327   3
  -4  13   0 68.6962 26.3853   2
  -4  13  -1 2937.97 142.807   3
   4  13   1 2632.68 76.7233   3
  -4  13  -1 2557.20 102.426   2
  -4  13  -2 2541.31 132.227   3
  -4  13  -2 2474.81 95.4260   2
  -4  13  -3 101.312 24.9652   2
  -4  13  -4 48.4502 21.5606   2
  -4 -13  -5 121.978 21.3410   3
  -4  13  -5 184.403 25.6770   2
  -4 -13  -6 118.524 24.1811   3
  -4 -13  -7 1401.46 73.8709   3
   4  13  12 70.6800 42.2830   2
   4  13  13 1922.14 122.736   2
   4  13  14-26.4517 40.4188   4
   4  13  14 55.7313 44.9476   2
   4  13  15 567.466 75.9552   2
   4  13  15 514.919 79.8073   4
   4  13  16 16.0842 47.8787   2
   4  13  16 0.99582 42.8326   4
   4  13  17 138.909 51.9485   2
   4  13  17 446.414 79.7243   4
   4  13  18 140.301 57.9291   2
   4  13  18 110.795 56.8424   4
   4  13  19 405.002 77.2790   2
   4  13  20-26.1097 49.2109   2
  -4  14  20 37.4418 66.7469   4
  -4  14  20-89.9154 89.6303   2
  -4  14  19-29.0122 70.2080   2
  -4  14  19 108.260 74.1186   4
  -4  14  18 2070.45 186.496   2
  -4  14  18 1974.34 183.550   4
  -4  14  17 122.337 73.7768   2
  -4  14  17 257.212 87.3321   4
  -4  14  16 3563.26 225.979   2
  -4  14  16 3581.68 229.022   4
  -4  14  15 27.8307 63.9440   4
  -4  14  15 24.2542 66.3747   2
  -4  14  14 1759.67 151.147   2
  -4  14  14 1812.74 157.219   4
  -4  14  13 127.393 62.8222   2
  -4  14  13 94.4386 57.5963   4
  -4  14  12 849.955 104.095   2
  -4  14  12 824.606 102.988   4
  -4  14  11 352.755 72.1766   2
  -4  14  11 253.982 68.5901   4
  -4  14  10 4210.84 208.277   4
  -4  14  10 4012.11 204.322   2
  -4  14   9 47.2500 47.7899   2
  -4  14   9 95.9593 59.4918   3
  -4  14   8 8628.56 299.119   3
  -4  14   8 8334.58 282.987   2
  -4  14   7 1258.48 111.926   3
  -4  14   7 1242.45 103.997   2
  -4  14   6 2331.05 146.141   3
  -4  14   6 2582.68 140.267   2
  -4  14   5 236.567 53.5637   3
  -4  14   5 223.426 50.2950   2
  -4  14   4 23.2790 44.6612   3
  -4  14   4-28.1895 46.4797   2
  -4  14   3-80.9169 54.7268   3
  -4  14   3-49.0855 41.4656   2
   4  14  -2 16612.5 302.323   3
  -4  14   2 16457.6 405.988   3
  -4  14   2 16440.2 365.565   2
   4  14  -1 1341.83 58.9804   3
  -4  14   1 1292.23 98.9470   3
  -4  14   1 1273.91 80.9292   2
  -4  14   0 16917.8 403.689   3
   4  14   0 16424.6 292.021   3
  -4  14   0 15715.8 341.899   2
  -4  14  -1 3704.75 165.743   3
   4  14   1 3666.95 99.8469   3
  -4  14  -1 3544.57 127.515   2
  -4  14  -2 9583.63 225.074   2
  -4  14  -2 10052.7 289.413   3
  -4  14  -3 91.5426 40.8985   3
  -4  14  -3 112.715 28.7826   2
  -4  14  -4 607.267 46.2552   2
  -4 -14  -5 122.115 23.9134   3
  -4  14  -5 147.851 27.8908   2
  -4 -14  -6 1707.00 78.1831   3
   4  14  12 360.090 64.5767   2
   4  14  13 85.5432 52.0141   2
   4  14  14 1308.04 104.672   2
   4  14  14 1342.82 112.049   4
   4  14  15 347.633 68.4142   2
   4  14  15 362.395 69.0590   4
   4  14  16 1952.10 137.930   2
   4  14  16 1946.38 141.922   4
   4  14  17 182.599 64.7426   4
   4  14  17 21.8755 54.8712   2
   4  14  18 723.421 100.711   4
   4  14  18 710.121 93.7842   2
   4  14  19 57.3456 55.3049   2
   4  14  20 274.643 76.5229   2
  -4  15  20-5.31817 93.6974   2
  -4  15  19 144.371 84.7933   2
  -4  15  19 55.6694 80.3585   4
  -4  15  18 527.045 104.127   2
  -4  15  18 391.958 106.464   4
  -4  15  17 24.9357 74.1115   2
  -4  15  17 54.0625 80.6490   4
  -4  15  16 85.7796 70.9572   2
  -4  15  16 98.5680 82.8057   4
  -4  15  15 66.5898 68.6797   2
  -4  15  15 127.567 75.8368   4
  -4  15  14 515.155 95.4565   2
  -4  15  14 430.552 87.7736   4
  -4  15  13-53.2292 52.6426   2
  -4  15  13 70.6304 66.8871   4
  -4  15  12 1217.63 124.664   2
  -4  15  12 1014.05 115.415   4
  -4  15  11 118.399 56.0061   4
  -4  15  11 122.998 59.3823   2
  -4  15  10 1977.21 143.677   2
  -4  15   9 307.525 69.6518   2
  -4  15   9 350.903 74.3244   3
  -4  15   8 375.394 70.3159   2
  -4  15   8 356.455 78.0230   3
  -4  15   7 77.8230 53.9307   3
  -4  15   7 120.582 51.1241   2
  -4  15   6 522.698 79.1907   3
  -4  15   6 540.811 73.6990   2
  -4  15   5 1064.82 101.085   3
  -4  15   5 996.798 87.2440   2
  -4  15   4 276.903 60.9149   3
  -4  15   4 156.089 42.7887   2
  -4  15   3 157.926 50.4891   3
  -4  15   3 332.200 51.3179   2
   4  15  -2 2415.85 88.6713   3
  -4  15   2 2423.91 141.959   3
  -4  15   2 2555.68 123.164   2
  -4  15   1 3937.00 179.852   3
   4  15  -1 3956.95 115.564   3
  -4  15   1 3961.64 149.236   2
  -4  15   0 660.827 77.6283   3
   4  15   0 711.589 44.7175   3
  -4  15   0 724.000 62.5659   2
   4  15   1 2679.76 88.9073   3
  -4  15  -1 2519.52 109.139   2
  -4  15  -1 2770.00 148.686   3
  -4  15  -2 2624.66 142.487   3
  -4  15  -2 2660.38 106.361   2
  -4  15  -3 256.030 61.0054   3
  -4  15  -3 262.159 36.2151   2
  -4  15  -4 465.289 43.7995   2
  -4 -15  -5 32.1396 19.5989   3
  -4 -15  -6 1877.42 83.0923   3
   4  15  12 1306.59 104.841   2
   4  15  13 458.089 73.7571   2
   4  15  14 789.593 89.7597   2
   4  15  15 99.1122 47.6999   2
   4  15  15 71.9878 48.2858   4
   4  15  16 224.238 66.7219   4
   4  15  16 145.682 55.0039   2
   4  15  17 455.558 80.1496   2
   4  15  17 550.297 87.3379   4
   4  15  18 79.0655 59.7764   4
   4  15  18-23.1021 57.1070   2
   4  15  19 236.173 74.2579   2
   4  15  20 70.6924 58.2336   2
  -4  16  19 128.795 77.9831   2
  -4  16  19 47.7249 80.1661   4
  -4  16  18 393.977 99.9469   2
  -4  16  18 494.361 117.030   4
  -4  16  17 255.884 95.5902   2
  -4  16  17 316.241 92.3620   4
  -4  16  16 2294.36 188.813   2
  -4  16  16 2288.29 195.021   4
  -4  16  15 358.932 90.4671   2
  -4  16  15 581.941 101.778   4
  -4  16  14 963.299 121.688   2
  -4  16  14 1100.40 130.378   4
  -4  16  13 243.161 73.4487   2
  -4  16  13 258.111 84.0803   4
  -4  16  12 188.756 76.1567   2
  -4  16  12 269.430 74.0524   4
  -4  16  11 578.816 91.6544   2
  -4  16  11 552.083 96.5995   4
  -4  16  10 4523.74 220.856   2
  -4  16   9 1336.27 128.693   3
  -4  16   9 1295.07 118.571   2
  -4  16   8 1972.57 144.235   3
  -4  16   8 2297.66 148.739   2
  -4  16   7 475.856 72.4554   2
  -4  16   7 393.011 68.3694   3
  -4  16   6 1723.10 130.586   3
  -4  16   6 1322.82 105.694   2
  -4  16   5 331.553 67.1976   3
  -4  16   5 247.449 48.7710   2
  -4  16   4 38.1203 44.2315   3
  -4  16   4 16.2091 39.7381   2
  -4  16   3 247.740 58.3375   3
  -4  16   3 191.943 44.8945   2
  -4  16   2 9755.71 309.830   3
  -4  16   2 10143.7 274.447   2
   4  16  -2 10384.2 226.046   3
   4  16  -1 1164.33 62.9136   3
  -4  16   1 1229.73 103.532   3
  -4  16   1 1286.68 85.7822   2
  -4  16   0 15012.6 393.375   3
   4  16   0 14879.3 290.707   3
  -4  16   0 15098.0 335.098   2
  -4  16  -1 1240.72 102.136   3
   4  16   1 1103.32 58.9788   3
  -4  16  -1 1178.36 76.4875   2
  -4  16  -2 3512.76 169.294   3
   4  16   2 3181.08 106.500   3
  -4  16  -2 3371.73 125.115   2
  -4  16  -3 372.116 42.9109   2
  -4  16  -3 345.809 64.0445   3
  -4  16  -4 1950.53 88.0466   2
   4  16  13 93.7918 53.2138   2
   4  16  14 922.251 99.0925   2
   4  16  15 107.886 53.2180   2
   4  16  15 47.7434 48.5006   4
   4  16  16 787.366 96.1562   2
   4  16  16 838.567 102.143   4
   4  16  17-65.4956 61.6707   2
   4  16  17 27.4442 50.8225   4
   4  16  18 666.470 97.1983   4
   4  16  18 591.931 92.0122   2
   4  16  19 51.6831 57.7243   2
   4  16  20 4.14278 53.5787   2
  -4  17  19-4.72621 74.5829   2
  -4  17  19-42.1404 84.4341   4
  -4  17  18 65.7668 68.0129   2
  -4  17  18 48.6570 88.6648   4
  -4  17  17-19.3723 74.6550   2
  -4  17  17 41.5086 73.1108   4
  -4  17  16 2.92746 63.6412   4
  -4  17  16 56.8861 63.2725   2
  -4  17  15 136.948 68.6704   2
  -4  17  15 152.450 75.0809   4
  -4  17  14 2184.54 180.118   4
  -4  17  14 1960.11 169.047   2
  -4  17  13-25.9238 53.7289   2
  -4  17  13 25.7671 62.7099   4
  -4  17  12 3289.34 206.042   4
  -4  17  12 3101.25 196.121   2
  -4  17  11 32.8836 64.0932   2
  -4  17  10 2010.19 150.581   2
  -4  17   9 16.0346 52.0534   2
  -4  17   9 58.8272 62.0991   3
  -4  17   8 800.987 96.4041   2
  -4  17   8 750.759 99.5460   3
  -4  17   7 1873.07 144.886   3
  -4  17   7 1864.75 130.366   2
  -4  17   6 916.534 100.037   3
  -4  17   6 1016.52 93.5067   2
  -4  17   5 84.4422 49.2710   3
  -4  17   5 14.6416 45.0950   2
  -4  17   4 2658.02 159.863   3
  -4  17   4 2550.07 134.728   2
   4  17  -3 971.955 61.9696   3
  -4  17   3 815.362 91.6244   3
  -4  17   3 812.393 77.9606   2
   4  17  -2 1956.88 86.5197   3
  -4  17   2 1820.10 126.870   3
  -4  17   2 1875.47 110.496   2
   4  17  -1 815.401 55.0497   3
  -4  17   1 816.206 90.1932   3
  -4  17   1 695.764 68.3941   2
  -4  17   0 132.786 54.5841   3
   4  17   0 218.593 32.2408   3
  -4  17   0 254.686 46.9415   2
  -4  17  -1 827.103 89.2618   3
   4  17   1 773.249 54.0086   3
  -4  17  -1 808.529 67.1355   2
  -4  17  -2 2386.89 145.491   3
   4  17   2 2503.86 95.7292   3
  -4  17  -2 2349.62 106.930   2
  -4  17  -3 430.656 74.0283   3
  -4  17  -3 390.624 45.7679   2
  -4  17  -4 1696.50 122.564   3
   4  17  13 185.528 59.6596   2
   4  17  14 2137.44 147.076   2
   4  17  15-0.17474 48.1555   4
   4  17  15-37.6365 52.6624   2
   4  17  16 71.2202 56.4899   2
   4  17  16 108.355 55.7848   4
   4  17  17 216.639 63.7793   2
   4  17  17 224.308 67.0192   4
   4  17  18 108.897 62.9831   4
   4  17  18-35.0203 60.8015   2
   4  17  19 56.8432 57.6393   2
   4  17  20 140.441 68.0352   2
   4  17  21 137.018 71.5849   2
  -4  18  18 361.242 105.901   2
  -4  18  18 242.642 92.7308   4
  -4  18  17 262.069 95.7530   2
  -4  18  17 49.3753 75.8870   4
  -4  18  16 80.0749 62.9684   2
  -4  18  16 128.828 66.3936   4
  -4  18  15 143.706 69.8324   2
  -4  18  15 123.733 70.2027   4
  -4  18  14 319.751 89.5866   2
  -4  18  14 435.699 102.111   4
  -4  18  13 409.429 90.5153   2
  -4  18  13 395.543 92.3478   4
  -4  18  12 117.267 73.6520   2
  -4  18  12 161.919 71.1671   4
  -4  18  11 129.560 66.6060   2
  -4  18  10 565.568 91.2162   2
  -4  18   9 260.466 72.4323   2
  -4  18   9 30.8445 54.6181   3
  -4  18   8 1968.18 153.908   3
  -4  18   8 1968.74 142.534   2
  -4  18   7 54.9929 59.6153   3
  -4  18   7-78.2209 61.4589   2
  -4  18   6 1661.08 133.865   3
  -4  18   6 1583.02 119.381   2
  -4  18   5 352.422 67.7761   3
  -4  18   5 275.447 58.7823   2
  -4  18   4 1.97812 54.8070   3
  -4  18   4-0.79703 40.4054   2
   4  18  -3 526.157 50.3409   3
  -4  18   3 482.660 66.7099   2
  -4  18   3 509.396 78.4200   3
   4  18  -2 2379.55 100.831   3
  -4  18   2 2627.87 132.282   2
  -4  18   2 2591.89 155.233   3
   4  18  -1 66.8861 21.9433   3
  -4  18   1 48.9953 45.5849   3
  -4  18   1 115.093 38.3194   2
  -4  18   0 2213.54 143.798   3
   4  18   0 2350.04 97.7143   3
  -4  18   0 2214.51 114.424   2
  -4  18  -1 1150.32 107.655   3
   4  18   1 1094.78 65.5468   3
  -4  18  -1 1093.08 80.0102   2
  -4  18  -2 4493.58 204.748   3
   4  18   2 4243.84 137.887   3
  -4  18  -2 4426.72 156.003   2
  -4  18  -3 190.509 60.3966   3
  -4  18  -3 218.204 39.6633   2
  -4  18  -4 1269.97 112.936   3
   4  18  13 391.825 78.6492   2
   4  18  14 542.856 85.3954   2
   4  18  15-70.1098 54.4471   2
   4  18  16 342.920 78.7146   4
   4  18  16 256.769 68.9152   2
   4  18  17-50.5754 58.5274   2
   4  18  17-37.4795 49.2845   4
   4  18  18 236.837 66.9575   4
   4  18  18 257.972 67.1445   2
   4  18  19-115.576 72.4625   2
   4  18  20-5.23445 59.0179   2
   4  18  21 31.5962 66.4082   2
  -4  19  17 30.0637 72.2623   2
  -4  19  17 128.504 87.1705   4
  -4  19  16 66.5445 74.2469   2
  -4  19  16-5.87512 63.3500   4
  -4  19  15 111.719 76.5332   2
  -4  19  15 117.343 70.4980   4
  -4  19  14 2779.52 207.986   4
  -4  19  14 2845.76 204.787   2
  -4  19  13 440.169 99.6678   2
  -4  19  13 416.916 102.732   4
  -4  19  12 4269.92 238.515   2
  -4  19  11 28.5884 56.9517   2
  -4  19  10 975.182 111.921   2
  -4  19   9 141.257 66.8697   2
  -4  19   9 36.0092 54.8582   3
  -4  19   8 92.7841 63.7159   3
  -4  19   8 143.206 57.7529   2
  -4  19   7 753.830 99.1430   3
  -4  19   7 833.192 93.2483   2
  -4  19   6 3197.27 188.725   3
  -4  19   6 3344.71 171.915   2
  -4  19   5 1384.42 123.081   3
  -4  19   5 1550.12 115.601   2
  -4  19   4 5193.44 234.246   3
  -4  19   4 4960.21 204.171   2
   4  19  -4 5364.07 168.286   3
   4  19  -3-2.86711 24.3967   3
  -4  19   3-55.7391 64.7338   3
  -4  19   3 15.9001 37.3528   2
   4  19  -2 67.3665 26.3329   3
  -4  19   2 53.6851 41.5395   2
  -4  19   2-27.3244 49.7220   3
   4  19  -1 972.559 66.2663   3
  -4  19   1 1153.12 109.295   3
  -4  19   1 1037.85 87.0430   2
   4  19   0 815.920 60.1795   3
  -4  19   0 763.634 91.3240   3
  -4  19   0 657.562 71.0476   2
  -4  19  -1 587.818 84.1707   3
   4  19   1 557.048 50.3812   3
  -4  19  -1 538.182 61.7407   2
  -4  19  -2 258.977 67.8139   3
   4  19   2 213.859 36.3897   3
  -4  19  -2 254.322 45.8036   2
  -4  19  -3 5087.31 221.581   3
  -4  19  -3 4677.03 160.879   2
  -4  19  -4 4091.50 199.305   3
  -4  19  -5 419.472 77.2650   3
   4  19  13 677.097 91.4526   2
   4  19  14 1555.16 131.883   2
   4  19  15-1.87826 50.9088   2
   4  19  16 36.0331 52.7031   2
   4  19  16-20.1224 55.5088   4
   4  19  17-17.8830 58.6197   2
   4  19  17-42.9839 60.3989   4
   4  19  18 33.1279 52.9939   4
   4  19  18-34.8450 58.5623   2
   4  19  19-75.4246 70.2497   2
   4  19  20 378.187 91.4136   2
  -4  20  17 21.6284 64.6781   2
  -4  20  17 57.0708 77.3973   4
  -4  20  16-42.1146 72.3694   2
  -4  20  16-15.9626 71.5405   4
  -4  20  15 109.757 76.6695   2
  -4  20  15 84.7350 65.1453   4
  -4  20  14 21.0214 60.4685   2
  -4  20  14 26.2950 75.2576   4
  -4  20  13 138.231 82.4617   2
  -4  20  13 112.534 85.6349   4
  -4  20  12 204.724 83.9279   2
  -4  20  11 219.269 77.1713   2
  -4  20  10 565.468 93.0651   2
  -4  20  10 443.630 87.5850   3
  -4  20   9 187.674 66.0723   2
  -4  20   9 197.487 74.8195   3
  -4  20   8 168.528 69.0141   3
  -4  20   8 62.3903 50.5976   2
  -4  20   7-14.7763 51.6309   3
  -4  20   7-22.9886 55.5801   2
  -4  20   6 595.257 94.7363   3
  -4  20   6 371.140 71.5022   2
  -4  20   5 1055.25 114.708   3
  -4  20   5 994.805 98.8464   2
   4  20  -4 354.264 51.7336   3
  -4  20   4 423.975 83.1126   3
  -4  20   4 316.675 64.6210   2
   4  20  -3 189.870 37.8479   3
  -4  20   3 182.660 61.6555   3
  -4  20   3 97.0116 45.3443   2
   4  20  -2 5.38462 28.1146   3
  -4  20   2-105.873 68.1578   3
  -4  20   2 8.76604 36.2506   2
  -4  20   1 48.5575 45.2626   3
   4  20  -1 72.0826 24.9356   3
  -4  20   1 162.303 46.9748   2
  -4  20   0-14.3844 51.3607   3
   4  20   0 4.00498 23.2314   3
  -4  20   0 33.0441 37.1281   2
  -4  20  -1 303.829 68.0547   3
   4  20   1 298.221 41.6943   3
  -4  20  -1 321.612 52.7582   2
  -4  20  -2 209.090 67.7216   3
   4  20   2 106.871 30.4353   3
  -4  20  -2 224.265 48.0834   2
   4  20   3 1341.95 83.3056   3
  -4  20  -3 1321.59 87.8529   2
  -4  20  -3 1253.83 119.542   3
  -4  20  -4 625.221 95.6950   3
  -4  20  -5 330.094 79.6276   3
   4  20  13 387.906 79.1657   2
   4  20  14 212.418 69.0319   2
   4  20  15 210.697 67.8080   2
   4  20  16 16.7278 54.9379   4
   4  20  16-0.31633 47.0323   2
   4  20  17-43.1762 58.2645   2
   4  20  17 18.7902 58.1910   4
   4  20  18 79.3305 64.1921   4
   4  20  18 56.6950 62.7026   2
   4  20  19 43.5587 65.8833   2
  -4  21  16 116.468 82.8970   2
  -4  21  16 32.9404 75.6875   4
  -4  21  15 319.960 90.2785   2
  -4  21  15 350.769 100.034   4
  -4  21  14 1519.89 156.725   4
  -4  21  14 1699.20 168.142   2
  -4  21  13 802.111 126.318   4
  -4  21  13 694.842 114.018   2
  -4  21  12 3819.10 231.108   2
  -4  21  11 260.544 82.0575   2
  -4  21  10 712.997 100.717   2
  -4  21  10 700.174 114.633   3
  -4  21   9 54.8791 64.9027   3
  -4  21   9 29.7694 51.3817   2
  -4  21   8 1187.79 128.312   3
  -4  21   8 1303.20 121.262   2
  -4  21   7 56.3042 55.7206   3
  -4  21   7 21.3752 51.1263   2
  -4  21   6 5851.44 266.474   3
  -4  21   6 5180.31 229.763   2
  -4  21   5 1439.56 134.543   3
  -4  21   5 1309.96 112.940   2
  -4  21   4 4946.63 238.336   3
  -4  21   4 4912.10 208.384   2
   4  21  -4 4806.14 167.766   3
   4  21  -3 157.472 37.7080   3
  -4  21   3 138.464 65.4879   3
  -4  21   3 153.356 52.8489   2
   4  21  -2 110.448 33.0038   3
  -4  21   2-13.0718 58.2073   3
  -4  21   2 153.321 51.8969   2
   4  21  -1 1115.62 76.4015   3
  -4  21   1 1163.53 115.904   3
  -4  21   1 1021.19 91.0760   2
  -4  21   0 857.728 104.743   3
   4  21   0 948.203 71.7856   3
  -4  21   0 911.402 81.1538   2
  -4  21  -1 115.398 54.9776   3
   4  21   1 214.778 38.9275   3
  -4  21  -1 256.235 52.1733   2
  -4  21  -2 301.776 70.8746   3
   4  21   2 333.607 46.0587   3
  -4  21  -2 397.663 57.1163   2
   4  21   3 2394.36 113.519   3
  -4  21  -3 2217.34 115.614   2
  -4  21  -3 2516.08 163.000   3
  -4  21  -4 3712.11 197.921   3
  -4  21  -5 1271.53 122.452   3
  -4  21  -6 2449.80 165.966   3
   4  21  13 689.183 97.4214   2
   4  21  14 850.472 108.780   2
   4  21  15 158.876 70.0747   2
   4  21  16 100.227 65.3373   2
   4  21  17-91.5721 74.0249   2
   4  21  17 4.31419 57.4391   4
   4  21  18 184.081 72.7409   4
   4  21  18 159.527 73.4301   2
  -4  22  16 201.415 87.7655   2
  -4  22  15 102.151 83.2487   2
  -4  22  15-31.0122 77.8129   4
  -4  22  14 189.949 77.1637   4
  -4  22  14 118.175 77.3521   2
  -4  22  13 112.585 74.7387   2
  -4  22  12-17.8895 63.4351   2
  -4  22  11 366.539 90.0986   2
  -4  22  10 37.8417 54.0558   2
  -4  22  10 54.0975 68.1844   3
  -4  22   9 997.415 130.100   3
  -4  22   9 1117.34 125.024   2
  -4  22   8-15.4659 49.1382   3
  -4  22   8-17.7237 53.2994   2
  -4  22   7-30.9881 53.8605   3
  -4  22   7-12.6758 52.5280   2
  -4  22   6 836.822 114.895   3
  -4  22   6 847.524 99.5264   2
   4  22  -5 268.312 48.8022   3
  -4  22   5 96.0739 68.2626   3
  -4  22   5 45.1798 51.9710   2
   4  22  -4 200.108 44.0049   3
  -4  22   4 234.483 67.6080   3
  -4  22   4 103.909 48.6463   2
   4  22  -3 1248.97 84.2590   3
  -4  22   3 1113.83 119.783   3
  -4  22   3 1189.98 103.341   2
   4  22  -2 617.963 59.1575   3
  -4  22   2 474.138 82.0453   3
  -4  22   2 637.411 78.5254   2
  -4  22   1-11.5321 53.0462   3
   4  22  -1 21.1312 27.0973   3
  -4  22   1 25.5993 36.8234   2
  -4  22   0 1250.84 123.373   3
   4  22   0 1084.60 79.1845   3
  -4  22   0 1168.88 96.1312   2
  -4  22  -1-39.1382 53.0109   3
  -4  22  -1 25.6253 38.5067   2
  -4  22  -2 1710.09 139.758   3
  -4  22  -2 1583.28 103.379   2
  -4  22  -3-34.0529 55.5327   3
  -4  22  -3 40.6959 40.0675   2
  -4  22  -4 307.866 80.1635   3
  -4  22  -5 2527.85 169.699   3
  -4  22  -6 129.488 69.2689   3
   4  22  13 414.011 84.3689   2
   4  22  14 191.957 72.2519   2
   4  22  15 227.517 77.4189   2
   4  22  16 25.1695 53.0921   2
   4  22  17-32.6071 58.6245   4
   4  22  17-71.7730 64.0701   2
  -4  23  15 117.778 74.5210   2
  -4  23  15 150.886 86.9092   4
  -4  23  14 1291.71 152.056   2
  -4  23  14 1031.17 143.903   4
  -4  23  13 187.977 87.6955   2
  -4  23  12 371.764 93.3758   2
  -4  23  11 1048.14 129.250   2
  -4  23  10 105.480 69.8255   2
  -4  23  10 67.6431 70.4772   3
  -4  23   9-47.4312 54.9839   3
  -4  23   9-141.334 74.4465   2
  -4  23   8 28.2409 50.0640   3
  -4  23   8-90.2675 68.3113   2
  -4  23   7 533.190 97.3504   3
  -4  23   7 485.599 84.2101   2
  -4  23   6 591.910 85.5612   2
  -4  23   6 753.458 108.529   3
  -4  23   5 499.586 94.5119   3
   4  23  -5 728.943 73.6187   3
  -4  23   5 590.698 82.6687   2
  -4  23   4 3440.79 208.389   3
  -4  23   4 3463.71 184.124   2
  -4  23   3 483.478 85.4615   3
  -4  23   3 542.372 75.0028   2
  -4  23   2 900.140 105.621   3
  -4  23   2 895.838 91.0729   2
  -4  23   1 276.518 67.4654   3
  -4  23   1 317.405 62.4377   2
  -4  23   0 94.3789 57.6375   3
  -4  23   0 122.621 47.3647   2
  -4  23  -1 79.5754 62.6818   3
  -4  23  -1 188.988 54.2299   2
  -4  23  -2 2270.25 164.296   3
  -4  23  -2 2142.11 123.283   2
  -4  23  -3 108.790 64.5010   3
  -4  23  -3 120.637 45.2424   2
  -4  23  -4 1061.50 115.379   3
  -4  23  -5 375.696 82.1466   3
  -4  23  -6 372.125 85.9314   3
  -4  23  -7 1006.93 118.766   3
   4  23  13 124.643 67.5090   2
   4  23  14 583.263 98.3087   2
   4  23  15 217.441 82.7770   2
   4  23  16 9.99064 56.8570   2
   4  23  17-82.3503 65.4384   4
  -4  24  14 365.883 95.7565   2
  -4  24  14 392.709 96.1118   4
  -4  24  13 1.94715 70.3988   2
  -4  24  12 37.9114 70.7030   2
  -4  24  11 211.440 76.4079   2
  -4  24  10 1073.76 132.191   3
  -4  24  10 1213.83 133.313   2
  -4  24   9 431.826 92.5629   3
  -4  24   9 390.198 82.3766   2
  -4  24   8 1756.61 159.467   3
  -4  24   8 1440.26 136.698   2
  -4  24   7-38.5920 51.6514   3
  -4  24   7-56.5006 60.8012   2
  -4  24   6 792.273 110.266   3
  -4  24   6 849.193 102.577   2
  -4  24   5 78.2999 63.0583   3
  -4  24   5-11.1116 45.0542   2
  -4  24   4 12.9889 62.6683   3
  -4  24   4-14.7394 47.7870   2
  -4  24   3 161.503 72.5100   3
  -4  24   3 135.605 52.5096   2
  -4  24   2 1221.71 129.301   3
  -4  24   2 1405.52 114.686   2
  -4  24   1 490.290 89.7600   3
  -4  24   1 552.256 75.4729   2
  -4  24   0 3054.29 194.202   3
  -4  24   0 2793.42 150.873   2
  -4  24  -1 319.725 77.2015   3
  -4  24  -1 415.676 65.2375   2
  -4  24  -2 1368.45 136.831   3
  -4  24  -2 1405.71 105.496   2
  -4  24  -3 82.1742 60.5832   3
  -4  24  -3 77.4119 44.0748   2
  -4  24  -4 168.871 66.4132   3
  -4  24  -5 900.075 115.464   3
  -4  24  -6 218.255 76.3714   3
  -4  24  -7 1633.25 146.394   3
   4  24  13 268.156 75.3028   2
   4  24  14 126.887 70.1424   2
   4  24  15 18.9114 56.0047   2
   4  24  17 71.5933 74.9794   4
  -4  25  13 34.2833 67.2383   2
  -4  25  12 229.266 79.1335   2
  -4  25  11 112.525 74.2364   2
  -4  25  10-33.4213 60.0564   3
  -4  25  10 87.4304 63.8794   2
  -4  25   9 236.502 84.9736   3
  -4  25   9 89.5459 64.9776   2
  -4  25   8 438.587 93.4840   3
  -4  25   8 460.757 90.6585   2
  -4  25   7 105.684 76.1075   3
  -4  25   7 76.7300 56.6455   2
  -4  25   6 237.379 76.6326   3
  -4  25   6 270.694 74.6711   2
  -4  25   5 75.7516 53.9092   2
  -4  25   5 39.9257 64.2494   3
  -4  25   4 436.493 88.4035   3
  -4  25   4 405.477 71.0996   2
  -4  25   3 307.501 77.9014   3
  -4  25   3 83.0496 50.7914   2
  -4  25   2-75.7547 62.2359   3
  -4  25   2 8.47005 41.2016   2
  -4  25   1 72.1309 57.2518   3
  -4  25   1 163.567 55.1673   2
  -4  25   0 13.4151 64.8492   3
  -4  25   0 9.29000 42.5977   2
  -4  25  -1 87.2504 65.0645   3
  -4  25  -1 102.784 51.9559   2
  -4  25  -2 24.2901 59.8419   3
  -4  25  -2 107.863 45.9376   2
  -4  25  -3 29.1674 59.5249   3
  -4  25  -3 93.5595 44.4661   2
  -4  25  -4 332.786 85.3718   3
  -4  25  -5 316.084 82.9299   3
  -4  25  -6 371.775 87.5465   3
  -4  25  -7 205.739 80.9560   3
  -4  25  -8 103.234 68.6357   3
   4  25  13 283.514 76.8606   2
   4  25  14 214.800 83.9002   2
  -4  26  12 10.3444 61.8873   2
  -4  26  11 91.3346 74.0058   2
  -4  26  10 244.577 80.8002   3
  -4  26  10 156.786 68.6604   2
  -4  26   9 327.454 87.7535   3
  -4  26   9 336.079 80.0542   2
  -4  26   8 2187.80 188.261   3
  -4  26   8 2186.68 177.291   2
  -4  26   7 803.354 120.797   3
  -4  26   7 678.662 100.416   2
  -4  26   6 1790.98 165.974   3
  -4  26   6 1664.30 144.522   2
  -4  26   5-62.2823 72.9798   3
  -4  26   5-89.4953 60.2444   2
  -4  26   4-94.6341 73.2368   3
  -4  26   4 21.8982 45.6326   2
  -4  26   3 323.880 86.4944   3
  -4  26   3 375.184 74.4375   2
  -4  26   2 2095.13 168.194   3
  -4  26   2 1561.18 126.671   2
  -4  26   1 485.773 91.6603   3
  -4  26   1 653.766 86.1640   2
  -4  26   0 3355.91 209.892   3
  -4  26   0 2911.89 165.185   2
  -4  26  -1 507.889 99.2004   3
  -4  26  -1 525.102 75.0449   2
  -4  26  -2 644.352 103.502   3
  -4  26  -2 771.499 86.8686   2
  -4  26  -3 61.6032 57.6683   3
  -4  26  -3 72.5949 42.9960   2
  -4  26  -4 10.7396 63.2808   3
  -4  26  -5 407.077 83.9019   3
  -4  26  -6 1444.75 143.441   3
  -4  26  -7 516.064 103.234   3
  -4  26  -8 2060.80 172.486   3
  -4  26  -9 566.224 105.038   3
  -4  27  11 10.2605 58.1873   2
  -4  27  10-40.8512 64.2536   3
  -4  27  10 18.6972 68.1160   2
  -4  27   9 318.418 96.1154   3
  -4  27   9 195.157 67.3248   2
  -4  27   8 49.7332 76.8585   3
  -4  27   8 175.896 76.8466   2
  -4  27   7 11.1942 66.2318   3
  -4  27   7-43.3303 64.5007   2
  -4  27   6 82.7263 57.8833   3
  -4  27   6 65.9966 56.3406   2
  -4  27   5-11.7473 53.5744   3
  -4  27   5-101.385 64.4179   2
  -4  27   4 46.0981 60.5348   3
  -4  27   4 7.00040 52.9000   2
  -4  27   3 162.700 80.2655   3
  -4  27   3 47.1374 49.9435   2
  -4  27   2 89.5017 73.8272   3
  -4  27   2 82.8348 47.5260   2
  -4  27   1 73.3298 73.3537   3
  -4  27   1 139.016 57.8444   2
  -4  27   0 58.7465 63.6106   3
  -4  27   0 155.087 59.3360   2
  -4  27  -1 23.5586 58.5625   3
  -4  27  -1 62.7074 47.1420   2
  -4  27  -2-26.0731 67.9804   3
  -4  27  -2 72.4683 48.3051   2
  -4  27  -3 136.073 59.9472   3
  -4  27  -3 243.891 62.4134   2
  -4  27  -4 17.4719 62.5226   3
  -4  27  -5 43.7746 58.4914   3
  -4  27  -6 142.157 65.5561   3
  -4  27  -7 521.345 102.021   3
  -4  27  -8 192.739 81.7342   3
  -4  27  -9 217.267 78.1106   3
  -4  27 -10 129.243 76.5336   3
  -4  28  10 491.577 117.006   3
  -4  28  10 455.086 102.470   2
  -4  28   9 42.8610 75.8548   3
  -4  28   9-16.9697 71.1673   2
  -4  28   8 840.588 118.439   2
  -4  28   8 1119.11 148.854   3
  -4  28   7 623.373 109.637   3
  -4  28   7 387.787 87.3649   2
  -4  28   6 814.861 125.801   3
  -4  28   6 739.403 107.670   2
  -4  28   5-54.9831 80.1086   3
  -4  28   5-36.1397 58.0872   2
  -4  28   4-19.7360 69.4530   3
  -4  28   4 20.3365 55.0686   2
  -4  28   3 278.674 83.0996   3
  -4  28   3 161.510 63.7377   2
  -4  28   2 1018.50 127.990   3
  -4  28   2 1168.57 113.563   2
  -4  28   1 395.186 89.7479   3
  -4  28   1 513.248 80.7172   2
  -4  28   0 2117.77 147.290   2
  -4  28   0 2656.66 196.421   3
  -4  28  -1 272.120 76.9615   3
  -4  28  -1 236.762 64.4165   2
  -4  28  -2 996.153 130.598   3
  -4  28  -2 984.798 101.308   2
  -4  28  -3-97.4931 71.9021   3
  -4  28  -4 59.8644 68.2933   3
  -4  28  -5 88.8091 69.8489   3
  -4  28  -6 1012.07 133.246   3
  -4  28  -7 385.005 96.6212   3
  -4  28  -8 1711.28 167.628   3
  -4  28  -9 151.588 86.6449   3
  -4  29   9-52.5181 81.7470   2
  -4  29   8 100.675 79.2721   3
  -4  29   8-141.256 87.5598   2
  -4  29   7 382.401 105.953   3
  -4  29   7 281.166 80.2887   2
  -4  29   6 102.540 80.1600   3
  -4  29   6-6.57489 61.9208   2
  -4  29   5 165.592 65.9614   2
  -4  29   5 186.511 70.3202   3
  -4  29   4 357.194 93.3871   3
  -4  29   4 350.988 80.3862   2
  -4  29   3 80.5547 74.3252   3
  -4  29   3-23.8692 49.1726   2
  -4  29   2 253.239 81.1890   3
  -4  29   2 210.652 69.0742   2
  -4  29   1 10.9865 63.3380   3
  -4  29   1 52.8203 54.3602   2
  -4  29   0 103.526 73.1122   3
  -4  29   0 134.908 63.4695   2
  -4  29  -1-10.1387 62.8859   3
  -4  29  -1 141.728 57.4424   2
  -4  29  -2 94.9300 75.0095   3
  -4  29  -2 107.601 52.6654   2
  -4  29  -3 197.657 71.6395   3
  -4  29  -4 307.718 83.9950   3
  -4  29  -5 51.7668 68.5317   3
  -4  29  -6 267.172 91.0700   3
  -4  29  -7 238.388 92.3835   3
  -4  30   8-86.4644 87.3236   2
  -4  30   7 101.178 59.9878   2
  -4  30   6 59.9718 67.6184   2
  -4  30   6 230.506 86.9281   3
  -4  30   5 175.526 85.5336   3
  -4  30   5 6.78429 57.6070   2
  -4  30   4-26.3790 66.9168   3
  -4  30   4 56.2055 62.7883   2
  -4  30   3 30.3359 68.8430   3
  -4  30   3-4.42593 55.4127   2
  -4  30   2 138.777 79.0131   3
  -4  30   2 196.838 73.6258   2
  -4  30   1 101.267 65.6188   3
  -4  30   1 211.582 69.5287   2
  -4  30   0 382.120 97.7288   3
  -4  30   0 495.412 84.1418   2
  -4  30  -1 189.019 72.7711   3
  -4  30  -1 252.410 68.7738   2
  -4  30  -2 463.293 105.591   3
  -4  30  -3 78.3145 68.9412   3
  -4  30  -4-33.5049 61.5831   3
  -4  30  -5-50.7643 67.8895   3
  -4  31   7-45.2203 74.6063   2
  -4  31   6-101.024 80.8842   2
  -4  31   5 448.602 89.6235   2
  -4  31   4 511.230 99.9027   2
  -4  31   3 182.751 80.8349   3
  -4  31   3 89.3404 60.9987   2
  -4  31   2 678.342 119.975   3
  -4  31   2 517.673 90.9536   2
  -4  31   1 131.010 78.9127   3
  -4  31   1 36.5164 57.6447   2
  -4  31   0-21.8534 77.9968   3
  -4  31   0 43.7862 56.8522   2
  -4  31  -1 481.219 103.434   3
  -4  31  -2 268.506 89.8101   3
  -4  32   5 77.1357 74.7819   2
  -4  32   4 16.3825 58.8918   2
  -4  32   3 24.3928 62.0999   2
  -4  32   2 516.322 94.2420   2
  -4  32   1-39.7197 57.3742   2
  -4  33   3 220.930 75.1369   2
  -4  33   2 381.804 89.4073   2
  -5   0  20 93.9613 73.8678   2
  -5   0  19-23.7187 58.9506   2
  -5   0  18 196.522 83.8601   2
  -5   0  17 94.1889 75.1815   2
  -5   0  16 1854.57 161.486   2
  -5   0  15 54.4333 72.9415   2
  -5   0  14-4.12192 61.0850   2
  -5   0  13-29.1113 55.7140   2
  -5   0  12 230.260 66.2378   2
  -5   0  11 15.8105 47.8552   2
  -5   0  10 705.213 104.642   2
  -5   0   9 81.3720 57.9325   2
  -5   0   8 345.646 74.8746   2
  -5   0   7-3.17204 44.8475   2
   5   0  -7-5.15517 18.4965   1
  -5   0   6 11664.9 309.601   2
   5   0  -6 11022.5 231.188   1
   5   0  -5 104.900 29.8030   1
   5   0  -4 632.246 47.7836   3
   5   0  -4 636.736 50.6500   1
   5   0  -3 6.09789 15.3200   3
   5   0  -3-10.6065 20.8870   4
   5   0  -3 6.93952 29.5295   1
   5   0  -2 7789.11 188.090   4
  -5   0   2 7534.69 181.122   3
   5   0  -2 7562.63 177.373   3
   5   0  -2 7815.53 205.396   1
   5   0  -1-8.94573 20.3136   2
  -5   0   1-6.72883 17.2451   3
   5   0  -1 11.1988 14.9947   4
  -5   0   0 5267.83 135.272   3
   5   0   0 5502.62 158.558   2
   5   0   0 5267.81 126.682   4
  -5   0  -1 4.81014 16.2376   3
   5   0   1 16.9760 17.5059   2
   5   0   2 121.124 25.8054   2
  -5   0  -2 127.150 23.1610   3
   5   0   3 19.3435 18.4105   2
   5   0   8 3613.83 87.3972   2
   5   0   9-25.0138 14.8376   2
   5   0  10 126.019 21.4826   2
   5   0  11-13.4747 15.1264   2
   5   0  12 2965.38 96.6509   2
   5   0  13-116.181 62.7681   1
   5   0  13-29.9443 22.4389   2
   5   0  14 214.575 57.9942   1
   5   0  15 49.7015 54.9759   1
   5   0  16 1443.03 131.070   1
   5   0  17-15.2355 49.6371   1
   5   0  18 390.782 83.0312   1
   5   0  19 10.4194 48.7656   1
   5   0  20 3.16231 54.3565   1
   5   0  21-25.8821 57.1441   1
  -5   1  22 25.1940 74.3769   2
  -5   1  21 65.3254 78.2969   2
  -5   1  20-43.2573 66.3772   2
  -5   1  19 754.738 122.010   2
  -5   1  18 97.1746 77.2667   2
  -5   1  17 2345.64 185.206   2
  -5   1  16 322.144 86.6129   2
  -5  -1  16 579.683 109.165   2
  -5   1  15 5252.87 261.109   2
  -5  -1  15 5248.88 259.039   2
  -5   1  14 535.877 94.1506   2
  -5  -1  14 612.284 95.7887   2
  -5   1  13-1.85803 55.3671   2
  -5  -1  13 84.2183 62.5338   2
  -5   1  12 129.142 66.5460   2
  -5  -1  12 136.583 63.5448   2
  -5   1  11 10455.1 338.755   2
  -5  -1  11 10485.2 339.557   2
  -5   1  10 264.814 72.6818   2
  -5  -1  10 346.972 84.6471   2
  -5  -1   9 21455.6 503.928   2
  -5   1   9 21122.4 497.705   2
  -5   1   8 253.476 64.5109   2
   5  -1  -8 211.909 22.9062   1
   5   1  -7 13914.4 261.705   1
   5  -1  -7 13712.9 262.219   1
  -5   1   7 14091.2 361.877   2
  -5   1   6 39.1169 41.2290   2
   5  -1  -6-7.15944 21.4609   1
   5   1  -6 23.5513 21.1438   1
  -5   1   5 187.117 46.1045   2
   5   1  -5 148.598 29.2902   3
   5   1  -5 218.924 32.6971   1
   5  -1  -5 157.564 28.8845   1
   5  -1  -4 5492.43 160.104   3
   5   1  -4 5565.80 153.198   3
   5   1  -4 5643.40 157.243   1
  -5   1   4 5494.79 188.902   2
   5   1  -3 3722.47 129.910   1
   5  -1  -3 3966.16 125.332   3
   5   1  -3 3908.55 117.322   3
  -5   1   3 3776.44 126.353   3
   5   1  -3 3890.34 132.942   4
   5  -1  -3 3938.03 131.302   4
   5   1  -2 507.920 50.4821   1
   5   1  -2 533.253 38.3934   3
  -5  -1   2 496.054 39.2361   3
  -5   1   2 478.601 43.0678   3
   5  -1  -2 495.219 41.6259   4
   5  -1  -2 578.162 44.3074   3
   5   1  -2 542.915 44.2864   4
  -5   1   1 7430.13 178.504   3
   5  -1  -1 7177.22 195.341   2
  -5  -1   1 7144.71 163.861   3
   5   1  -1 6982.27 201.763   1
   5   1  -1 7445.89 174.139   4
   5   1   0 17.4255 20.8926   2
  -5   1   0 23.2421 18.0794   3
  -5  -1   0-6.96479 15.3129   3
   5   1   0-78.8841 41.2029   1
   5  -1   0 20.5012 19.0388   2
   5   1   0 13.4800 13.0029   4
  -5   1  -1 11209.6 233.261   3
  -5  -1  -1 11148.7 216.961   3
   5  -1   1 11175.0 240.341   2
   5   1   1 10901.3 278.783   1
   5   1   1 11324.5 251.018   2
   5   1   1 11132.5 204.370   4
  -5   1  -2 959.705 53.7330   3
   5  -1   2 896.537 51.6690   2
  -5  -1  -2 886.900 46.2956   3
   5   1   2 809.319 31.3210   4
   5  -1   3 1815.67 69.8598   2
   5  -1   4 35.5910 14.6638   2
   5  -1   5 3206.73 87.7258   2
   5  -1   7 6615.34 121.393   2
   5  -1   8 553.523 26.3412   2
   5   1   9 19342.8 329.759   2
   5   1   9 19876.2 463.168   1
   5  -1   9 19011.4 310.448   2
   5  -1  10 128.582 16.5494   2
   5   1  10 88.4419 17.6622   2
   5   1  10 30.8759 46.8815   1
   5  -1  11 3110.50 87.1141   2
   5   1  11 3175.22 101.103   2
   5   1  11 3110.30 164.569   1
   5   1  12 0.63637 18.1224   2
   5   1  12-74.0474 62.0330   1
   5  -1  12-9.66951 15.4934   2
   5   1  13 79.4292 24.4301   2
   5  -1  13 79.9066 19.1592   2
   5   1  13-21.1246 63.3097   1
   5   1  14 593.112 49.9655   2
   5   1  14 543.982 83.7772   1
   5   1  15 2350.84 158.043   1
   5  -1  15 2542.44 161.320   1
   5  -1  16 323.950 69.6132   1
   5   1  16 544.619 87.4024   1
   5   1  17 949.195 107.429   1
   5  -1  17 826.873 105.209   1
   5  -1  18 55.6376 53.5314   1
   5   1  18 32.5091 48.8809   1
   5   1  19 123.378 59.5893   1
   5  -1  19 210.885 68.2016   1
   5   1  20-18.5579 52.4136   1
   5  -1  20 27.1532 56.8913   1
   5  -1  21-115.866 66.5233   1
   5   1  21-21.4009 50.1253   1
  -5   2  22 107.221 78.5417   2
  -5   2  21 173.276 79.2426   2
  -5   2  20 50.0459 68.0011   2
  -5   2  19 559.293 114.814   2
  -5   2  18 225.749 85.4439   2
  -5   2  17 256.040 82.4296   2
  -5   2  16 8.08361 53.3839   2
  -5   2  15 99.2889 78.2605   2
  -5   2  14 1256.55 127.384   2
  -5   2  13 2455.93 165.456   2
  -5   2  12 118.731 52.7775   2
  -5   2  11 768.405 92.2563   2
  -5   2  10 1538.78 124.031   2
  -5   2   9 462.650 76.9630   2
   5  -2  -9 334.652 22.3257   1
   5  -2  -8 3908.39 101.942   1
  -5   2   8 3959.82 181.791   2
   5  -2  -7 4534.41 121.623   1
  -5   2   7 4711.00 192.086   2
   5   2  -6 3504.49 110.767   1
  -5   2   6 3646.16 161.320   2
   5  -2  -6 3761.50 113.450   1
   5   2  -5 5652.93 158.547   3
   5   2  -5 5404.58 151.771   1
  -5   2   5 5610.97 194.401   2
  -5   2   4 599.117 62.8149   2
   5   2  -4 615.146 45.6535   3
  -5   2   4 599.186 55.5585   3
   5   2  -4 612.864 49.8570   1
   5  -2  -3 4706.63 144.494   3
   5   2  -3 4791.81 129.140   3
   5   2  -3 4995.79 155.151   4
  -5   2   3 4704.88 148.132   3
   5   2  -3 5068.94 152.302   1
  -5   2   3 4838.10 166.857   2
   5  -2  -2 4964.13 142.184   3
   5   2  -2 4902.41 121.999   3
  -5   2   2 4605.35 156.839   2
  -5   2   2 4727.45 144.018   3
   5   2  -2 4731.62 142.829   4
   5   2  -2 4840.14 153.538   1
   5   2  -1 2191.21 104.380   1
   5  -2  -1 2313.11 96.3469   2
  -5   2   1 2110.76 89.3606   3
  -5  -2   1 2167.65 73.3986   3
   5   2  -1 2305.48 87.9319   4
  -5   2   0 845.850 54.9623   3
   5  -2   0 741.503 52.3181   2
   5   2   0 878.673 61.6295   2
   5   2   0 953.845 70.5182   1
  -5  -2   0 918.200 42.7749   3
  -5   2  -1 56.1455 23.9657   3
   5   2   1 0.53965 39.0495   1
  -5  -2  -1 54.6184 13.7567   3
   5  -2   1 20.9749 15.8916   2
  -5   2  -2 5267.47 147.535   3
   5  -2   2 5238.17 137.695   2
   5   2   2 6160.46 193.634   1
  -5  -2  -2 5555.02 124.152   3
   5  -2   3 3803.77 102.265   2
   5   2   3 3810.59 153.992   1
   5  -2   4 3552.96 91.6275   2
   5   2   4 3637.85 154.558   1
   5  -2   5 6195.45 123.685   2
   5   2   5 6423.09 216.824   1
   5  -2   6 1050.41 34.2167   2
   5   2   6 1099.84 91.9914   1
   5   2   7 2683.59 142.608   1
   5   2   8 9484.41 288.359   1
   5   2   9 51.4880 21.9903   2
   5   2   9-53.3710 51.2499   1
   5   2  10 2376.77 142.208   1
   5   2  10 2276.99 82.6819   2
   5   2  11 2865.77 156.728   1
   5  -2  11 2557.52 68.0767   2
   5   2  11 2787.45 96.7795   2
   5   2  12 249.502 35.0705   2
   5   2  12 156.756 49.2923   1
   5  -2  12 202.228 20.6264   2
   5   2  13 2366.67 150.837   1
   5   2  13 2343.32 99.6749   2
   5   2  14 245.779 39.3271   2
   5   2  14 211.772 64.9741   1
   5   2  15 187.490 62.3066   1
   5   2  16 609.340 88.8407   1
   5  -2  17-32.4515 60.8423   1
   5   2  17 37.0031 54.6658   1
   5   2  18 683.596 96.9995   1
   5  -2  18 558.267 87.3484   1
   5  -2  19 586.810 93.9867   1
   5   2  19 626.467 91.7431   1
   5  -2  20-88.0818 57.3545   1
   5   2  20 95.5060 63.1383   1
   5   2  21-38.0008 58.1176   1
   5  -2  21-34.4232 57.4084   1
  -5   3  22 100.071 91.8883   2
  -5   3  21 158.068 87.5235   2
  -5   3  20 60.5730 79.7726   2
  -5   3  19 455.211 106.168   2
  -5   3  18 95.4173 76.4009   2
  -5   3  17 1589.62 151.590   2
  -5   3  16 258.918 79.0573   2
  -5   3  15 1227.02 132.622   2
  -5   3  14 1220.56 126.160   2
  -5   3  13 945.506 109.741   2
  -5   3  12 4932.01 230.466   2
  -5   3  11 10987.5 349.180   2
  -5   3  10 46.8751 54.5452   2
   5  -3  -9 16980.9 285.044   1
  -5   3   9 18106.5 443.504   2
   5  -3  -8 452.522 33.4213   1
  -5   3   8 445.364 69.5436   2
  -5   3   7 2226.95 129.833   2
   5   3  -6-12.8688 20.5098   3
  -5   3   6-41.4520 40.8268   2
   5   3  -5 1766.79 78.9230   1
   5   3  -5 1675.58 78.3154   3
  -5   3   5 1723.10 105.764   2
   5   3  -4 631.901 45.1000   3
   5   3  -4 684.143 54.4114   1
  -5   3   4 729.300 59.2591   3
  -5   3   4 745.400 69.7704   2
  -5   3   4 699.382 61.3588   4
   5   3  -3 2409.82 83.6541   3
  -5   3   3 2714.33 111.790   3
   5   3  -3 2641.70 108.101   1
  -5   3   3 2495.89 116.235   2
  -5   3   3 2634.78 107.407   4
   5   3  -2 5398.70 127.144   3
   5   3  -2 5530.47 170.389   1
  -5   3   2 5650.09 172.949   2
  -5   3   2 5982.90 167.902   3
  -5   3   2 5331.62 153.480   4
   5  -3  -1 16815.8 330.851   2
  -5   3   1 16200.4 328.126   3
   5   3  -1 16232.6 345.774   1
  -5   3   1 16115.8 333.612   2
  -5   3   1 15594.9 307.785   4
   5  -3   0 579.478 44.9472   2
  -5   3   0 517.418 46.6056   3
   5   3   0 456.558 54.7062   1
  -5  -3   0 499.233 28.6548   3
  -5   3   0 525.128 38.4923   4
   5  -3   1 8904.97 199.745   2
  -5   3  -1 8922.27 213.656   3
  -5  -3  -1 9174.56 168.861   3
  -5   3  -1 9057.29 177.702   4
   5   3   1 9510.09 248.303   1
  -5   3  -2 674.079 53.1797   3
   5  -3   2 761.725 43.1207   2
  -5  -3  -2 760.607 35.1578   3
   5   3   2 692.802 68.8432   1
   5  -3   3 232.640 21.7252   2
   5   3   3 187.569 45.0324   1
   5   3   4 3759.06 158.404   1
   5  -3   4 3500.34 82.8504   2
   5   3   5 126.169 43.5992   1
   5   3   6 923.943 34.7798   4
   5   3   6 1075.83 90.8858   1
   5   3   7 13547.7 236.287   4
   5   3   7 14731.7 364.518   1
   5   3   8 102.024 48.2943   1
   5   3   9 2345.49 139.682   1
   5   3  10 1308.03 112.146   1
   5   3  10 1315.04 64.5690   2
   5   3  11 4171.30 195.768   1
   5   3  11 4198.99 128.362   2
   5   3  12 620.760 86.6222   1
   5   3  12 737.523 53.7252   2
   5   3  13 1630.85 127.018   1
   5   3  13 1874.67 90.8529   2
   5   3  14 370.728 45.5967   2
   5   3  14 282.541 67.5417   1
   5   3  15 2324.53 156.573   1
   5   3  15 2532.36 116.573   2
   5   3  16-9.78841 53.2051   1
   5   3  17 1125.55 113.643   1
   5  -3  18-19.7341 57.9814   1
   5   3  18 46.2557 50.7006   1
   5  -3  19-18.3203 60.7256   1
   5   3  19 58.4343 58.7244   1
   5   3  20 39.5286 51.8246   1
   5  -3  20-92.5504 62.7161   1
   5  -3  21 46.1109 63.8082   1
   5   3  21 210.869 73.9478   1
  -5   4  22 143.724 93.3883   2
  -5   4  21 1107.18 151.063   2
  -5   4  20 3.03363 74.4447   2
  -5   4  19 633.113 120.298   2
  -5   4  18 17.3554 69.8310   2
  -5   4  17 141.039 71.9484   2
  -5   4  16 49.9285 57.5612   2
  -5   4  15 29.6680 55.9583   2
  -5   4  14 179.667 69.5267   2
  -5   4  13 2751.10 174.651   2
  -5   4  12 294.691 74.4791   2
  -5   4  11 8825.17 306.038   2
   5  -4 -10 198.672 15.4907   1
  -5   4  10 238.377 63.8523   2
  -5   4   9 469.830 67.1133   2
   5  -4  -9 534.818 32.2881   1
  -5   4   8 1153.81 97.2411   2
  -5   4   8 1147.43 95.8983   4
  -5   4   7 7041.76 239.172   2
  -5   4   7 6916.76 231.137   4
  -5   4   6 2779.66 139.931   2
   5   4  -6 2935.93 112.518   3
  -5   4   6 2917.81 135.688   4
   5   4  -5 12796.5 270.489   3
  -5   4   5 13151.2 326.692   2
  -5   4   5 13342.5 313.721   3
  -5   4   5 12869.8 311.303   4
   5   4  -4 1615.01 69.1569   3
   5   4  -4 1761.95 82.8653   1
  -5   4   4 1693.03 94.1581   3
  -5   4   4 1642.89 96.1593   2
  -5   4   4 1483.61 88.2984   4
   5   4  -3 13396.3 252.632   3
  -5   4   3 13259.7 304.954   3
   5   4  -3 13652.8 296.505   1
  -5   4   3 13849.4 318.552   2
  -5   4   3 13751.1 299.787   4
   5   4  -2 1974.40 62.7107   3
  -5   4   2 1959.62 93.7905   3
   5   4  -2 1935.92 94.9651   1
  -5   4   2 2006.98 98.5966   2
  -5   4   2 1840.12 85.3341   4
  -5   4   1 9205.38 227.464   3
   5   4  -1 9130.96 239.147   1
  -5   4   1 9460.17 230.144   2
  -5   4   1 9365.67 210.813   4
   5  -4  -1 9344.54 218.980   2
  -5   4   0 1010.60 66.3918   3
  -5   4   0 1075.69 55.2784   4
   5  -4   0 1070.33 59.1246   2
   5   4   0 1113.83 77.5847   1
  -5   4   0 1057.48 62.8053   2
  -5   4  -1 846.326 59.0954   3
  -5  -4  -1 828.691 30.9706   3
   5   4   1 814.067 70.0233   1
  -5   4  -1 798.849 43.8616   4
   5  -4   1 854.942 48.6586   2
  -5   4  -2 4492.69 143.170   3
  -5  -4  -2 4567.24 94.5548   3
   5  -4   2 4572.21 115.585   2
   5   4   2 4823.08 170.887   1
  -5   4  -2 4589.42 105.313   4
  -5   4  -3 13657.7 228.462   4
   5  -4   3 14052.5 240.860   2
   5   4   3 13756.1 335.601   1
   5   4   4 867.732 77.6423   1
   5  -4   4 770.068 29.8040   2
   5   4   5 3378.00 152.668   1
   5   4   6 5200.27 195.363   1
   5   4   7 2178.08 68.3609   4
  -5   4  -7 1930.15 54.1575   4
   5   4   7 2189.51 129.246   1
   5   4   8 79.3381 45.7409   1
  -5   4  -8 53.1991 12.2343   4
   5   4   8 70.0290 19.2794   4
   5   4   9 14.5354 52.2981   1
  -5   4  -9 71.7895 15.0228   4
   5   4   9 65.2108 20.0798   4
   5   4  10 6402.44 235.342   1
   5   4  10 6180.44 163.699   2
  -5   4 -10 6282.57 149.871   4
   5   4  11 6007.46 234.701   1
   5   4  11 6173.61 166.761   2
   5   4  12-8.16562 49.2514   1
   5   4  12-14.7317 23.6059   2
   5   4  13 549.775 83.5108   1
   5   4  13 646.938 55.9317   2
   5   4  14 43.8549 32.3732   2
   5   4  14-17.0359 52.4268   1
   5   4  15 116.724 34.5539   2
   5   4  15 58.8308 49.6194   1
   5   4  16-0.38461 57.2463   1
   5   4  17 79.5300 59.8271   1
   5   4  18 97.6704 57.1297   1
   5   4  19 449.373 80.0083   1
   5   4  20 217.556 66.3312   1
   5  -4  20 166.219 70.2654   1
   5   4  21 1066.04 115.153   1
   5  -4  21 788.170 111.244   1
  -5   5  22 101.385 79.3107   2
  -5   5  21-31.4367 63.1857   2
  -5   5  20 27.3785 67.5592   2
  -5   5  19 28.0472 68.4441   2
  -5   5  18 0.08064 62.6957   2
  -5   5  17 711.108 111.356   2
  -5   5  16 175.861 64.3132   2
  -5   5  15 112.331 63.3309   2
  -5   5  14 2628.21 179.596   2
  -5   5  13-13.2497 60.5346   2
  -5   5  12 755.238 96.3378   2
  -5   5  11 167.846 56.4171   2
   5  -5 -10 296.073 21.9525   1
  -5   5  10 320.196 67.4034   2
  -5   5  10 315.799 66.0825   4
  -5   5   9 5420.43 219.648   2
  -5   5   9 5369.71 215.874   4
  -5   5   8 1541.53 112.230   2
  -5   5   8 1561.22 112.678   4
  -5   5   7 4365.15 183.977   2
  -5   5   7 4477.43 179.715   4
  -5  -5   6 2436.76 100.500   1
  -5   5   6 2388.90 130.148   2
   5   5  -6 2485.28 100.905   3
  -5   5   6 2369.65 124.321   4
  -5   5   5 2766.30 127.580   4
  -5   5   5 2736.93 133.119   2
   5   5  -5 2555.21 96.3783   3
  -5   5   5 2721.52 128.377   3
  -5  -5   5 2442.88 104.344   1
  -5   5   4 6358.18 200.886   2
  -5   5   4 5981.98 186.794   4
   5   5  -4 6108.15 148.866   3
  -5   5   4 6181.38 192.534   3
   5   5  -3 2727.98 84.0812   3
  -5   5   3 3109.95 127.426   3
   5   5  -3 3088.88 116.683   1
  -5   5   3 2986.45 125.545   2
  -5   5   3 3000.78 120.097   4
   5   5  -2 2282.42 64.2712   3
  -5   5   2 2389.34 108.564   3
   5   5  -2 2433.00 108.907   1
  -5   5   2 2376.72 107.550   2
  -5   5   2 2394.63 99.9289   4
  -5   5   1 11042.4 266.508   3
   5   5  -1 10806.1 272.706   1
  -5   5   1 11568.2 261.557   2
   5  -5  -1 11441.0 249.269   2
  -5   5   1 11313.0 244.694   4
  -5   5   0 2070.97 98.1241   3
  -5   5   0 1973.35 79.1374   4
   5   5   0 1963.69 104.195   1
  -5   5   0 1998.94 88.7116   2
   5  -5   0 2149.94 83.0436   2
  -5   5  -1 2553.01 108.314   3
   5   5   1 2662.97 125.396   1
  -5   5  -1 2830.93 96.5997   2
   5  -5   1 2556.86 85.3177   2
  -5   5  -1 2654.68 85.0862   4
  -5   5  -2 293.071 42.8323   3
   5   5   2 264.558 51.7301   1
   5  -5   2 192.142 22.8134   2
   5   5   3 110.025 42.2389   1
   5  -5   3 82.7082 13.0241   2
   5   5   4 446.106 63.6263   1
   5   5   5 1126.62 95.7551   1
   5   5   6 1507.22 105.993   1
   5   5   7 103.476 47.8574   1
   5   5   8 2147.21 78.6585   4
   5   5   8 2272.58 132.346   1
  -5   5  -8 2165.99 70.8729   4
   5   5   9 6160.40 223.837   1
   5   5   9 5551.36 148.797   4
  -5   5  -9 5636.82 138.394   4
   5   5  10 1328.54 109.822   1
  -5   5 -10 1207.75 61.0535   4
   5   5  10 1290.78 68.8770   4
   5   5  11-11.6912 23.1354   4
   5   5  11 9.13890 49.4637   1
   5   5  11 26.3970 24.9307   2
   5   5  12 913.372 65.6094   2
   5   5  12 980.546 100.139   1
   5   5  13 49.3202 25.9738   2
   5   5  13 201.857 61.0455   1
   5   5  14 923.401 101.568   1
   5   5  14 823.560 68.0652   2
   5   5  15 378.375 54.3516   2
   5   5  15 354.641 70.7538   1
   5   5  16 91.7687 55.1427   1
   5   5  17 776.706 99.0920   1
   5   5  18 71.5974 51.2994   1
   5   5  19 125.330 64.6770   1
   5   5  20 495.585 88.6236   1
   5  -5  21-49.0488 65.3506   1
   5   5  21 197.181 70.1526   1
  -5   6  21 1338.69 161.900   2
  -5   6  20 39.9830 72.9258   2
  -5   6  19 1153.02 141.541   2
  -5   6  18 197.005 74.4558   2
  -5   6  17 285.514 79.3694   2
  -5   6  16 43.7397 52.7644   2
  -5   6  15 2617.35 183.933   2
  -5   6  14-1.27759 58.7988   2
  -5   6  13 4345.83 223.109   2
  -5   6  12 573.685 91.4756   2
  -5   6  12 711.103 94.9673   4
  -5   6  11 3236.12 179.981   2
  -5   6  11 3264.79 177.364   4
  -5  -6  10 153.032 27.8832   1
  -5   6  10 53.6412 51.3389   2
  -5   6  10 137.509 51.6388   4
  -5  -6   9 7.07785 19.8049   1
  -5   6   9 3.42670 48.6275   2
  -5   6   9 47.9179 50.7207   4
  -5   6   8 192.928 51.6876   2
  -5  -6   8 241.548 36.0915   1
  -5   6   8 206.683 52.6194   4
  -5   6   7 2855.65 143.185   4
  -5   6   7 2862.98 147.231   2
  -5  -6   7 2713.27 108.309   1
  -5   6   6 102.049 35.5853   4
  -5   6   6 111.074 41.1891   3
  -5   6   6 39.2958 36.2091   2
  -5   6   5 16052.6 376.928   2
  -5   6   5 15899.0 371.622   3
   5   6  -5 15988.8 311.288   3
  -5   6   5 16042.8 366.271   4
  -5   6   4 937.321 76.1071   2
  -5   6   4 993.304 77.5053   3
   5   6  -4 960.070 50.6468   3
  -5   6   4 795.977 67.4083   4
  -5   6   3 23921.0 479.325   3
   5   6  -3 24021.7 391.905   3
  -5   6   3 24208.6 478.470   2
  -5   6   3 23749.1 461.633   4
   5   6  -2 3962.68 87.4001   3
  -5   6   2 3930.15 147.334   3
   5   6  -2 4158.64 143.136   1
  -5   6   2 4119.38 146.245   2
  -5   6   2 4220.79 139.172   4
  -5   6   1 5358.88 174.948   3
  -5   6   1 5617.99 166.563   2
   5   6  -1 6065.06 181.809   1
   5  -6  -1 5471.42 152.260   2
  -5   6   1 5695.69 158.355   4
   5   6   0 1949.13 104.731   1
  -5   6   0 1725.20 82.4358   2
  -5   6   0 1775.62 93.3812   3
   5  -6   0 1874.18 75.5691   2
  -5   6  -1 13094.8 299.346   3
   5   6   1 13019.3 315.698   1
  -5   6  -1 13344.4 267.094   2
   5  -6   1 13015.1 249.391   2
  -5   6  -2 239.679 40.1655   3
   5   6   2 177.152 48.9081   1
   5  -6   2 209.092 22.4481   2
  -5   6  -2 175.857 25.8197   2
   5   6   3 28273.4 559.656   1
   5   6   4 217.522 52.1587   1
   5   6   5 7369.66 238.338   1
   5   6   6 2683.34 141.405   1
   5   6   7 1261.78 102.515   1
   5   6   8 1766.51 121.188   1
   5   6   9 4.62602 21.3994   4
   5   6   9 3.19807 43.6030   1
   5   6  10 186.978 53.2643   1
   5   6  10 256.090 36.5816   4
  -5   6 -10 264.091 31.3765   4
   5   6  11 2209.34 140.481   1
   5   6  11 2220.47 100.204   2
   5   6  11 2253.91 101.026   4
   5   6  12 49.8679 51.3158   1
   5   6  12 16.3764 24.5409   2
   5   6  12 5.31941 25.1632   4
   5   6  13 3399.95 179.615   1
   5   6  13 3081.68 128.512   2
   5   6  13 3265.07 134.518   4
   5   6  14 616.928 86.5283   1
   5   6  14 509.159 53.4375   2
   5   6  15 712.087 68.7952   2
   5   6  15 706.041 90.2622   1
   5   6  16 38.1616 32.2066   2
   5   6  16 17.3090 54.5420   1
   5   6  17 63.3311 53.1252   1
   5   6  18 91.0311 61.0643   1
   5   6  19 444.212 83.9551   1
   5   6  20 175.677 59.9138   1
   5   6  21 654.176 99.5205   1
  -5   7  21 11.9197 68.6364   2
  -5   7  20 35.0669 80.4461   2
  -5   7  19-34.7200 74.0798   2
  -5   7  18 14.9442 71.8815   2
  -5   7  17 111.254 68.5957   2
  -5   7  16 275.468 77.1434   2
  -5   7  15-70.3688 64.3250   2
  -5   7  14 23.2912 58.3555   2
  -5   7  13 106.147 68.7185   2
  -5   7  13 261.846 79.1754   4
  -5   7  12 2505.23 165.995   2
  -5   7  12 2343.63 160.151   4
  -5   7  11 276.638 71.4067   2
  -5   7  11 216.055 68.0404   4
  -5   7  10 1494.32 123.326   2
  -5   7  10 1630.10 126.787   4
  -5  -7  10 1547.59 78.4465   1
  -5  -7   9 4.23836 23.3273   1
  -5   7   9 4.16626 51.6236   2
  -5   7   9 59.6691 47.7452   4
  -5   7   8 1437.26 108.982   2
  -5  -7   8 1441.56 81.3136   1
  -5   7   8 1553.17 111.977   4
  -5   7   7 1665.02 113.886   2
  -5   7   7 1756.41 114.187   4
  -5   7   6 8085.45 252.169   2
  -5   7   6 7857.82 247.986   3
  -5   7   6 8103.30 247.120   4
  -5   7   5 868.968 76.7536   3
  -5   7   5 803.497 77.6766   2
  -5   7   5 792.849 72.0080   4
  -5   7   4 7013.66 218.225   2
  -5   7   4 7040.95 220.220   3
   5   7  -4 6787.72 158.122   3
  -5   7   4 7023.89 210.942   4
  -5   7   3 2432.60 114.834   2
  -5   7   3 2390.17 117.987   3
   5   7  -3 2310.96 69.5711   3
  -5   7   3 2473.55 112.384   4
   5   7  -2 9.12272 6.12113   3
  -5   7   2-3.23698 27.7700   3
  -5   7   2 1.10261 26.0461   2
  -5   7   2-14.2717 25.0904   4
  -5   7   1 19.8252 29.4468   3
   5   7  -1 9.70137 32.1021   1
  -5   7   1 8.59719 22.3069   2
   5  -7  -1 28.9761 18.4758   2
  -5   7   0-33.1172 29.8616   3
  -5   7   0-9.91349 23.8104   2
   5   7   0 10.5915 33.0702   1
   5  -7   0 3.01217 13.7505   2
  -5   7  -1 353.179 49.2350   3
  -5   7  -1 258.465 32.3164   2
   5  -7   1 267.846 26.6341   2
   5   7   1 317.796 52.1140   1
  -5   7  -2 199.582 45.1865   3
  -5   7  -2 73.1708 20.8832   2
   5   7   2 105.843 41.3930   1
   5   7   3 546.790 70.2152   1
  -5   7  -3 567.895 35.3039   2
   5   7   4 1741.24 111.186   1
   5   7   5 165.354 51.5336   1
   5   7   6 468.960 67.9169   1
   5   7   7 5753.10 216.568   1
   5   7   8 4536.02 191.969   1
   5   7   9 4417.55 192.311   1
   5   7  10 643.165 81.9059   1
   5   7  10 604.908 52.1701   4
   5   7  11 145.773 60.9989   1
   5   7  11 137.822 38.2365   2
   5   7  11 188.595 38.2330   4
   5   7  12 3087.44 168.230   1
   5   7  12 2991.51 125.702   2
   5   7  12 2967.92 127.436   4
   5   7  13 102.045 58.2425   1
   5   7  13 79.9963 33.8825   2
   5   7  13 33.0722 28.8769   4
   5   7  14 755.537 93.4561   1
   5   7  14 490.707 57.3866   2
   5   7  14 616.370 63.1510   4
   5   7  15 155.769 67.8645   1
   5   7  15-28.6240 37.6107   2
   5   7  16 37.1960 32.3496   2
   5   7  16 32.3305 56.7505   1
   5   7  17-27.5033 49.5576   1
   5   7  18 216.552 65.1221   1
   5   7  19 8.78517 51.2552   1
   5   7  20 65.3270 58.4509   1
  -5   8  21 943.866 146.007   2
  -5   8  20 187.907 91.5542   2
  -5   8  19 913.779 125.999   2
  -5   8  18-56.0478 74.2049   2
  -5   8  17 26.3183 74.1028   2
  -5   8  16-48.3563 70.0340   2
  -5   8  15 2840.99 195.198   2
  -5   8  15 3000.71 199.410   4
  -5   8  14 17.9698 59.6979   2
  -5   8  14 14.6269 57.5767   4
  -5   8  13 5324.67 251.794   2
  -5   8  13 4869.41 241.662   4
  -5   8  12 351.954 73.9795   2
  -5   8  12 389.642 79.6702   4
  -5   8  11 3677.23 196.638   2
  -5   8  11 4057.76 203.496   4
  -5   8  10 26.9214 48.9886   2
  -5  -8  10 56.7737 26.5524   1
  -5   8  10 117.985 58.3393   4
  -5   8   9 3921.71 189.503   2
  -5   8   9 3714.56 182.536   4
  -5   8   8-32.7626 41.9488   4
  -5   8   8 27.4674 38.7418   2
  -5   8   7 1727.28 118.186   2
  -5   8   7 2007.13 125.028   3
  -5   8   7 1673.32 115.472   4
  -5   8   6 162.976 47.9126   2
  -5   8   6 101.504 43.4758   3
  -5   8   6 84.6841 39.1748   4
  -5   8   5 6823.02 226.024   2
  -5   8   5 7118.55 229.538   3
  -5   8   5 6820.87 218.362   4
  -5   8   4 84.0187 35.3504   4
  -5   8   4 116.139 42.8659   3
  -5   8   4 51.5864 30.5057   2
  -5   8   3 7909.92 225.589   2
  -5   8   3 7640.50 231.730   3
   5   8  -3 7441.79 151.165   3
  -5   8   2 1831.28 94.9475   2
  -5   8   2 1699.31 100.908   3
  -5   8   1 3002.64 118.161   2
  -5   8   1 2929.33 132.918   3
  -5   8   0 7.35331 30.7477   3
   5   8   0-60.0291 37.3654   1
  -5   8   0 17.5065 22.3213   2
   5  -8   0 35.2995 18.1485   2
  -5   8  -1 14773.9 341.818   3
  -5   8  -1 14934.7 300.304   2
   5   8   1 15255.8 349.061   1
  -5   8  -2 5354.04 181.893   3
  -5   8  -2 5488.10 142.526   2
   5   8   2 5536.45 191.767   1
  -5   8  -3 21301.7 366.303   2
   5   8   3 22390.1 469.265   1
   5   8   4 65.9701 42.1435   1
  -5  -8  -4 33.0389 8.15310   3
  -5   8  -4 63.8100 13.3756   2
   5   8   5 8473.87 257.410   1
  -5  -8  -5 7732.98 161.299   3
   5   8   6 208.824 57.0289   1
   5   8   7 2268.37 134.227   1
   5   8   8 349.043 68.3003   1
   5   8   9 2996.92 158.952   1
   5   8  10 168.019 57.0475   1
   5   8  10 93.2425 27.6440   4
   5   8  11 6731.57 252.105   1
   5   8  11 6685.46 198.761   4
   5   8  12 237.881 67.5971   1
   5   8  12 165.913 40.9894   2
   5   8  12 146.891 37.3947   4
   5   8  13 3844.04 192.089   1
   5   8  13 4001.82 153.170   2
   5   8  13 3870.08 155.978   4
   5   8  14 297.588 47.9627   2
   5   8  14 399.870 58.4550   4
   5   8  14 234.626 67.5974   1
   5   8  15 644.403 89.3334   1
   5   8  15 478.930 61.6331   2
   5   8  15 558.657 69.4955   4
   5   8  16 611.845 86.1050   1
   5   8  16 536.472 66.8583   2
   5   8  17 654.194 89.6984   1
   5   8  18 159.086 66.4751   1
   5   8  19 582.930 86.6513   1
   5   8  20 45.2335 49.9799   1
  -5   9  21 248.576 94.3694   2
  -5   9  20-14.1366 72.9469   2
  -5   9  19 396.210 101.106   2
  -5   9  18-28.0526 69.3612   2
  -5   9  17 607.255 100.460   2
  -5   9  16 150.378 70.3193   2
  -5   9  16 153.219 72.5432   4
  -5   9  15 780.957 107.213   2
  -5   9  15 615.278 99.4660   4
  -5   9  14 28.1038 62.3231   2
  -5   9  14 62.0089 69.4039   4
  -5   9  13 6.77864 59.9478   4
  -5   9  13-82.7093 73.7882   2
  -5   9  12 482.200 88.8847   2
  -5   9  12 736.283 100.428   4
  -5   9  11 163.279 64.6438   2
  -5   9  11 162.094 61.4714   4
  -5   9  10 682.993 88.4049   2
  -5   9  10 819.539 95.2869   4
  -5   9   9 1633.28 125.170   2
  -5   9   9 1739.76 123.662   4
  -5   9   8 563.021 73.8727   2
  -5   9   8 559.999 76.6101   4
  -5   9   7 10813.4 319.752   3
  -5   9   7 10584.1 315.946   2
  -5   9   7 11212.5 316.410   4
  -5   9   6 478.196 64.7015   2
  -5   9   6 384.385 62.6497   3
  -5   9   6 366.145 56.3868   4
  -5   9   5 5888.93 207.734   2
  -5   9   5 5690.37 207.885   3
  -5   9   5 5915.75 203.053   4
  -5   9   4 2960.69 145.359   3
  -5   9   4 3219.84 142.874   2
  -5   9   3 60.2171 38.7186   3
  -5   9   3 125.834 35.7171   2
  -5   9   2 5657.57 180.965   2
  -5   9   2 5734.58 196.273   3
  -5   9   1 7328.42 201.730   2
  -5   9   1 7049.37 222.491   3
  -5   9   0 26.1046 30.8047   3
  -5   9   0 44.8359 25.0641   2
  -5   9  -1 5126.27 178.882   3
  -5   9  -1 4857.20 143.868   2
  -5   9  -2 697.650 46.4206   2
  -5   9  -2 689.346 69.6763   3
   5   9   2 665.900 73.8465   1
  -5   9  -3 14.1630 15.6498   2
   5   9   3 25.3551 42.3041   1
  -5  -9  -4 1430.80 40.4375   3
  -5   9  -4 1548.99 55.4694   2
   5   9   4 1391.48 103.992   1
  -5  -9  -5 1593.11 55.8031   3
   5   9   5 1368.33 104.807   1
   5   9   6 4733.47 186.322   1
  -5  -9  -6 4007.81 112.684   3
   5   9   7 1767.18 118.435   1
  -5  -9  -7 1698.22 76.0644   3
   5   9   8 530.249 77.8506   1
   5   9   9-10.0314 47.2253   1
   5   9  10 410.820 71.0374   1
   5   9  11 773.605 66.0930   4
   5   9  11 880.247 94.8704   1
   5   9  12 2197.27 146.077   1
   5   9  12 2297.56 114.060   2
   5   9  12 2192.98 113.918   4
   5   9  13 49.3034 37.1726   2
   5   9  13 37.6174 59.2372   1
   5   9  13 31.7401 31.3396   4
   5   9  14 331.104 65.8245   1
   5   9  14 333.102 52.8054   2
   5   9  14 301.362 53.1417   4
   5   9  15 62.4756 36.6591   4
   5   9  15 85.2351 55.8876   1
   5   9  15 96.6933 40.6742   2
   5   9  16 320.700 74.3814   1
   5   9  16 183.963 44.5696   2
   5   9  17 56.5744 43.1611   2
   5   9  17 85.8213 58.8949   1
   5   9  18 132.386 62.0545   1
   5   9  19 223.113 70.8849   1
   5   9  20 330.461 75.6575   1
  -5  10  20 65.8713 86.2223   2
  -5  10  19 156.529 80.2698   2
  -5  10  18 48.7928 74.5051   2
  -5  10  17 78.1114 75.4811   2
  -5  10  17 72.9668 68.7060   4
  -5  10  16 248.839 74.1322   2
  -5  10  16 184.955 70.1772   4
  -5  10  15 742.732 115.730   2
  -5  10  15 916.880 124.167   4
  -5  10  14-64.3135 63.1253   2
  -5  10  14 0.46828 62.8560   4
  -5  10  13 4768.27 242.711   2
  -5  10  13 4821.83 244.066   4
  -5  10  12 48.3627 58.8437   2
  -5  10  12-32.6756 55.1071   4
  -5  10  11 2469.78 164.186   2
  -5  10  11 2660.63 167.342   4
  -5  10  10 2079.24 147.758   2
  -5  10  10 2128.18 145.336   4
  -5  10   9-90.3891 59.6329   2
  -5  10   9 11.3703 48.2085   4
  -5  10   8 157.794 53.7142   2
  -5  10   8 209.336 59.9548   3
  -5  10   8 147.533 53.1925   4
  -5  10   7 546.216 73.4287   2
  -5  10   7 565.121 78.8687   3
  -5  10   7 558.553 73.6995   4
  -5  10   6-24.8392 39.8587   2
  -5  10   6-4.43408 44.3677   3
  -5  10   6-11.8336 39.7482   4
  -5  10   5 3324.49 155.706   2
  -5  10   5 3278.74 158.614   3
  -5  10   4 1266.48 89.4905   2
  -5  10   4 1343.12 102.068   3
  -5  10   3 9688.17 278.249   3
  -5  10   3 9325.67 256.174   2
  -5  10   2 1512.96 101.207   3
  -5  10   2 1486.06 87.8631   2
  -5  10   1 59.1218 34.7465   3
  -5  10   1 64.5047 29.4462   2
  -5  10   0 3190.65 144.942   3
  -5  10   0 3231.41 120.869   2
  -5  10  -1 3412.23 149.903   3
  -5  10  -1 3409.62 118.925   2
  -5  10  -2 64.4578 22.2517   2
  -5  10  -2 89.7147 41.4119   3
  -5  10  -3 16612.1 380.346   3
  -5  10  -3 16201.8 301.591   2
  -5 -10  -4 3924.38 77.7564   3
  -5  10  -4 4150.21 105.342   2
   5  10   4 4634.72 181.094   1
  -5 -10  -5 14191.4 248.294   3
  -5  10  -5 14227.4 241.571   2
   5  10   5 14780.6 364.252   1
  -5 -10  -6 1995.36 72.5833   3
   5  10   6 2027.40 123.697   1
  -5 -10  -7 186.752 26.8798   3
   5  10   7 148.058 50.5272   1
  -5 -10  -8 352.336 39.7520   3
   5  10   8 320.243 64.7277   1
   5  10   9 506.535 77.3871   1
   5  10  10 276.185 61.5229   1
   5  10  11 306.593 62.6006   1
   5  10  12 433.823 77.6419   1
   5  10  12 449.498 59.3076   2
   5  10  12 476.727 58.6871   4
   5  10  13 1130.74 87.5349   4
   5  10  13 1122.67 88.6556   2
   5  10  13 1084.17 107.732   1
   5  10  14 207.436 60.7184   1
   5  10  14 251.667 52.1543   2
   5  10  14 199.850 48.6565   4
   5  10  15 467.910 64.4233   2
   5  10  15 505.976 82.0072   1
   5  10  15 487.641 66.8303   4
   5  10  16 473.819 80.8116   1
   5  10  16 421.036 65.2301   2
   5  10  17 8.72357 50.2599   1
   5  10  17 60.3765 44.9246   2
   5  10  18 69.6798 58.3646   1
   5  10  19 219.718 68.7226   1
  -5  11  20 46.7055 69.2033   2
  -5  11  19 701.430 119.069   2
  -5  11  18 54.2529 74.0768   2
  -5  11  17 2438.14 194.079   2
  -5  11  17 2438.04 198.279   4
  -5  11  16 148.021 80.3299   4
  -5  11  16 201.657 74.5076   2
  -5  11  15 897.787 121.455   2
  -5  11  15 860.617 122.012   4
  -5  11  14 261.521 70.2031   2
  -5  11  14 186.411 72.9534   4
  -5  11  13-39.6082 62.8782   4
  -5  11  13-7.40285 61.0846   2
  -5  11  12 206.222 64.9829   2
  -5  11  12 216.857 69.7836   4
  -5  11  11 1934.17 144.596   2
  -5  11  11 1973.08 147.282   4
  -5  11  10 33.2222 49.6346   2
  -5  11  10-25.2651 57.0555   4
  -5  11   9 2985.54 170.452   2
  -5  11   9 3063.81 169.707   4
  -5  11   8 83.8299 48.3614   2
  -5  11   8 241.783 66.1496   3
  -5  11   8 148.098 47.1913   4
  -5  11   7 2114.17 133.761   2
  -5  11   7 2435.30 146.388   3
  -5  11   7 2411.16 140.267   4
  -5  11   6-32.5964 44.4662   2
  -5  11   6 7.11581 44.0845   3
  -5  11   5 299.638 56.6333   2
  -5  11   5 170.005 50.2424   3
  -5  11   4 1219.92 100.233   3
  -5  11   4 1317.23 93.0887   2
  -5  11   3 3975.76 174.894   3
  -5  11   3 4163.19 162.915   2
   5  11  -2 2093.37 51.4745   3
  -5  11   2 2227.93 125.441   3
  -5  11   2 2385.23 113.170   2
  -5  11   1 8641.83 260.053   3
  -5  11   1 8379.23 226.623   2
  -5  11   0 2961.91 142.768   3
  -5  11   0 2892.24 115.727   2
  -5  11  -1 15604.9 375.600   3
  -5  11  -1 15563.6 320.308   2
  -5  11  -2 108.845 45.2533   3
  -5  11  -2 58.4595 23.9647   2
  -5  11  -3 1082.08 56.6579   2
  -5  11  -3 1207.99 94.1634   3
  -5  11  -4 1011.99 50.8961   2
  -5  11  -5 4692.52 110.184   2
  -5 -11  -5 4658.86 107.129   3
  -5  11  -6 591.533 26.1246   2
  -5 -11  -6 583.960 39.3762   3
   5  11   6 656.124 81.4952   1
   5  11   7 6702.58 239.174   1
  -5 -11  -7 6563.14 163.941   3
  -5 -11  -8 266.559 35.1102   3
   5  11   8 173.448 61.7514   1
   5  11   9 6057.73 232.956   1
   5  11  10-38.0996 48.4645   1
   5  11  11 733.113 87.0249   1
   5  11  12 392.181 72.4301   1
   5  11  12 443.134 62.1324   2
   5  11  12 347.792 53.7825   4
   5  11  13 38.3213 45.0826   1
   5  11  13 152.878 50.5077   2
   5  11  13 44.1103 33.3495   4
   5  11  14 1312.16 120.239   1
   5  11  14 1277.81 97.7047   2
   5  11  14 1383.21 103.279   4
   5  11  15 601.555 88.0008   1
   5  11  15 499.640 70.0267   2
   5  11  15 505.606 68.7798   4
   5  11  16 16.7431 49.9940   1
   5  11  16-25.4284 42.9099   2
   5  11  17 1366.83 110.695   2
  -5  12  20 7.28697 79.9986   2
  -5  12  19-65.5336 79.8332   2
  -5  12  18 152.282 83.9900   2
  -5  12  18 416.562 110.628   4
  -5  12  17 45.8131 69.4552   2
  -5  12  17 242.545 86.6172   4
  -5  12  16 189.557 85.8514   2
  -5  12  16 220.001 73.4979   4
  -5  12  15 344.587 84.7535   2
  -5  12  15 591.671 100.481   4
  -5  12  14-9.89046 52.4200   4
  -5  12  14-57.0542 60.6113   2
  -5  12  13 577.863 97.3451   2
  -5  12  13 509.756 89.7602   4
  -5  12  12 308.101 73.3956   2
  -5  12  12 527.920 89.4759   4
  -5  12  11 425.471 83.9803   2
  -5  12  11 333.287 73.0710   4
  -5  12  10 412.566 81.4901   2
  -5  12  10 564.532 86.0484   4
  -5  12   9 609.364 86.1238   2
  -5  12   9 669.434 88.5413   4
  -5  12   8 956.042 96.8147   2
  -5  12   8 940.841 102.122   3
  -5  12   8 894.645 94.7411   4
  -5  12   7 134.073 51.8568   2
  -5  12   7 201.689 61.0579   3
  -5  12   7 255.177 58.3666   4
  -5  12   6 914.604 88.7834   2
  -5  12   6 977.689 93.1326   3
  -5  12   5 12.7519 38.5099   2
  -5  12   5-26.1856 46.7718   3
  -5  12   4 340.093 53.4402   2
  -5  12   4 379.023 61.4938   3
  -5  12   3 402.498 54.6328   2
  -5  12   3 388.424 65.6253   3
  -5  12   2 3659.20 166.487   3
   5  12  -2 3603.18 79.9390   3
  -5  12   2 3526.35 147.454   2
  -5  12   1 88.4294 36.1895   2
  -5  12   1-29.1402 47.4564   3
  -5  12   0 2880.16 146.067   3
  -5  12   0 2910.43 119.453   2
  -5  12  -1 3869.72 168.289   3
  -5  12  -1 3801.99 133.593   2
  -5  12  -2 2321.19 130.268   3
  -5  12  -2 2129.23 91.5264   2
  -5  12  -3 3917.87 121.993   2
  -5  12  -3 4165.87 173.417   3
  -5  12  -4 123.069 24.2423   2
  -5  12  -5 517.908 35.8743   2
  -5 -12  -5 559.563 31.5251   3
  -5  12  -6 93.2852 14.3929   2
  -5 -12  -6 124.022 20.5980   3
  -5 -12  -7 266.287 31.1987   3
   5  12  13 196.346 51.7254   2
   5  12  13 120.307 41.2224   4
   5  12  14 367.992 62.7182   2
   5  12  14 300.641 59.4480   4
   5  12  15 159.154 50.2187   2
   5  12  15 108.605 47.8085   4
   5  12  16 177.120 52.3762   2
   5  12  17-46.6426 53.9410   2
   5  12  18 214.335 60.3429   2
  -5  13  19 663.185 118.877   2
  -5  13  19 694.137 122.236   4
  -5  13  18 412.267 96.7350   2
  -5  13  18 600.197 118.753   4
  -5  13  17 2040.12 185.540   2
  -5  13  17 1695.50 169.028   4
  -5  13  16 241.180 80.0084   2
  -5  13  16 254.149 82.9728   4
  -5  13  15 2055.69 170.627   2
  -5  13  15 2098.88 176.696   4
  -5  13  14-121.085 78.5613   2
  -5  13  14 92.8562 74.9459   4
  -5  13  13-58.5634 72.2365   2
  -5  13  13 206.476 76.5048   4
  -5  13  12-26.5661 57.1674   2
  -5  13  12 25.1097 62.3188   4
  -5  13  11 301.259 70.8373   2
  -5  13  11 333.259 75.4869   4
  -5  13  10 911.242 105.450   2
  -5  13  10 769.466 97.0491   4
  -5  13   9 7540.80 282.698   4
  -5  13   9 7192.46 276.475   2
  -5  13   8 18.6442 42.4439   2
  -5  13   8 66.7682 60.4467   3
  -5  13   8 33.1189 46.7092   4
  -5  13   7 7944.29 284.085   3
  -5  13   7 7989.61 272.483   2
  -5  13   6 161.577 52.0013   2
  -5  13   6 102.607 50.2370   3
  -5  13   5 819.772 82.5481   2
  -5  13   5 894.918 90.6946   3
  -5  13   4 2020.08 130.174   3
  -5  13   4 2053.50 119.174   2
  -5  13   3 2591.62 146.348   3
  -5  13   3 2776.06 134.105   2
   5  13  -2 2989.85 75.8997   3
  -5  13   2 2892.31 151.593   3
  -5  13   2 3005.50 133.129   2
  -5  13   1 19523.2 411.387   2
  -5  13   1 19303.8 455.702   3
  -5  13   0 55.3719 29.3726   2
  -5  13   0-18.5043 44.4169   3
  -5  13  -1 12527.3 339.276   3
  -5  13  -1 12140.5 279.828   2
  -5  13  -2 373.931 43.8968   2
  -5  13  -2 254.959 53.4674   3
  -5  13  -3 2787.12 146.448   3
  -5  13  -3 2679.62 101.499   2
  -5  13  -4 189.062 29.3625   2
  -5 -13  -5 1283.44 49.9994   3
  -5  13  -5 1275.50 59.0171   2
  -5 -13  -6 821.706 46.5561   3
  -5  13  -6 855.577 42.9892   2
  -5  13  -7 1174.49 43.7957   2
   5  13  13 365.863 58.7468   2
   5  13  13 303.976 56.1444   4
   5  13  14 225.624 53.3297   4
   5  13  14 189.266 50.9234   2
   5  13  15 1434.16 111.102   2
   5  13  15 1488.46 115.329   4
   5  13  16 228.944 55.4800   2
   5  13  17 841.187 94.4098   2
   5  13  18-33.9999 46.7472   2
  -5  14  19-39.2607 67.7133   2
  -5  14  19 49.3558 73.4316   4
  -5  14  18 35.3959 80.2043   2
  -5  14  18 72.4616 69.5967   4
  -5  14  17 8.06968 74.9398   2
  -5  14  17 138.042 70.8161   4
  -5  14  16 0.97616 57.1713   2
  -5  14  16 36.0200 64.2145   4
  -5  14  15-37.9313 77.3504   2
  -5  14  15-77.5048 68.9032   4
  -5  14  14 17.6867 62.9199   2
  -5  14  14-9.26499 53.8277   4
  -5  14  13-33.8112 64.1583   2
  -5  14  13-32.7978 55.5032   4
  -5  14  12-39.9124 65.4160   2
  -5  14  12-8.17913 56.3713   4
  -5  14  11-65.2657 63.5322   2
  -5  14  11-3.00422 57.3628   4
  -5  14  10 533.650 86.0339   2
  -5  14  10 464.599 82.6861   4
  -5  14   9 706.544 93.0090   2
  -5  14   9 889.478 110.274   3
  -5  14   9 678.715 89.0566   4
  -5  14   8 139.467 55.2462   2
  -5  14   8 266.918 75.0264   3
  -5  14   7 80.2038 44.1261   2
  -5  14   7 128.644 50.7054   3
  -5  14   6 253.864 55.2615   2
  -5  14   6 225.604 63.8406   3
  -5  14   5 1197.65 107.333   3
  -5  14   5 1216.94 101.042   2
  -5  14   4 120.545 46.3050   2
  -5  14   4 64.9087 47.5217   3
  -5  14   3 199.457 48.4458   2
  -5  14   3 159.488 52.6827   3
  -5  14   2 89.8994 42.1456   2
   5  14  -2 72.6911 13.9683   3
  -5  14   2 78.8173 41.0981   3
  -5  14   1 2515.19 144.230   3
   5  14  -1 2196.76 59.7288   3
  -5  14   1 2589.49 121.848   2
  -5  14   0 7729.94 263.209   3
  -5  14   0 7871.47 220.946   2
  -5  14  -1 511.135 53.5751   2
  -5  14  -1 524.045 73.6327   3
  -5  14  -2 257.971 57.2872   3
  -5  14  -2 346.626 41.9311   2
  -5  14  -3 239.231 55.3532   3
  -5  14  -3 261.577 33.6897   2
  -5  14  -4 373.913 37.3484   2
  -5  14  -4 411.575 67.8151   3
  -5  14  -5-33.6701 21.5929   2
  -5  14  -6 391.818 32.0253   2
  -5  14  -7 277.967 24.5895   2
   5  14  13 209.656 55.2800   2
   5  14  14 40.2037 40.2991   2
   5  14  14-11.4272 39.6785   4
   5  14  15 272.249 62.0755   2
   5  14  15 202.372 55.0064   4
   5  14  16 284.364 66.7282   2
   5  14  17-73.7864 56.3575   2
   5  14  18 148.880 51.0504   2
  -5  15  19 579.271 116.555   2
  -5  15  19 576.779 124.886   4
  -5  15  18 228.834 93.6942   2
  -5  15  18 274.977 101.849   4
  -5  15  17 1427.11 154.965   2
  -5  15  17 1589.25 169.547   4
  -5  15  16 110.798 67.7546   2
  -5  15  16 191.810 82.4590   4
  -5  15  15 1463.69 153.827   2
  -5  15  15 1572.77 157.395   4
  -5  15  14 419.791 87.2030   2
  -5  15  14 372.220 88.1447   4
  -5  15  13-70.2110 72.0189   2
  -5  15  13-7.36671 62.4804   4
  -5  15  12 48.6553 56.2093   2
  -5  15  12 22.8712 58.5780   4
  -5  15  11 2397.99 171.394   4
  -5  15  11 2407.73 169.772   2
  -5  15  10 461.926 85.8975   2
  -5  15  10 397.788 76.5829   4
  -5  15   9 2179.06 153.890   4
  -5  15   9 2421.95 168.539   3
  -5  15   9 2212.71 153.551   2
  -5  15   8 1331.21 121.971   3
  -5  15   8 1599.71 127.923   2
  -5  15   7 4226.60 208.638   3
  -5  15   7 4692.52 212.690   2
  -5  15   6 26.0539 39.6684   2
  -5  15   6 70.4656 55.1472   3
  -5  15   5 404.612 63.4762   2
  -5  15   5 337.181 66.9842   3
  -5  15   4 138.191 45.2035   2
  -5  15   4 98.1236 47.4460   3
   5  15  -3 1196.99 55.5567   3
  -5  15   3 1209.30 106.988   3
  -5  15   3 1233.30 93.8456   2
   5  15  -2 714.953 39.6087   3
  -5  15   2 661.384 79.1759   3
  -5  15   2 825.376 75.4912   2
  -5  15   1 8194.46 278.014   3
   5  15  -1 7865.64 155.861   3
  -5  15   1 8083.69 236.312   2
  -5  15   0 2660.47 152.350   3
  -5  15   0 2785.01 124.808   2
  -5  15  -1 15418.6 402.251   3
  -5  15  -1 15184.1 335.878   2
  -5  15  -2 299.897 63.1478   3
  -5  15  -2 163.978 32.4276   2
  -5  15  -3 1844.16 123.897   3
  -5  15  -3 1604.93 82.3645   2
  -5  15  -4 71.4270 52.2257   3
  -5  15  -4 33.2737 22.1059   2
  -5  15  -5 746.336 49.2738   2
  -5  15  -6 211.288 26.9071   2
   5  15  13 558.715 77.0549   2
   5  15  14 6.09672 41.0815   2
   5  15  14 16.6292 41.6844   4
   5  15  15 1243.11 109.492   2
   5  15  15 1258.56 113.466   4
   5  15  16-1.18078 49.1176   2
   5  15  17 1067.77 109.075   2
   5  15  18-26.0766 58.6043   2
  -5  16  18-104.090 82.5819   2
  -5  16  18 20.0452 79.2274   4
  -5  16  17-1.79727 71.9232   2
  -5  16  17 159.466 95.6242   4
  -5  16  16 143.781 82.6470   2
  -5  16  16 169.125 92.7006   4
  -5  16  15 201.966 83.9989   2
  -5  16  15 161.593 81.2207   4
  -5  16  14-10.1587 57.9136   2
  -5  16  14 65.5346 69.6905   4
  -5  16  13 2769.72 194.990   2
  -5  16  13 2786.71 196.403   4
  -5  16  12 240.876 73.8949   2
  -5  16  12 201.563 73.1883   4
  -5  16  11 1271.39 129.493   2
  -5  16  11 1303.89 132.962   4
  -5  16  10-3.22859 53.2975   2
  -5  16  10-28.6528 60.2674   4
  -5  16   9 7.88311 46.3643   2
  -5  16   9 24.8749 49.9139   3
  -5  16   8 462.264 79.8963   2
  -5  16   8 625.413 97.2617   3
  -5  16   7 304.826 69.6286   2
  -5  16   7 323.077 68.2645   3
  -5  16   6 620.696 80.6543   2
  -5  16   6 675.833 87.1684   3
  -5  16   5 2559.40 159.824   3
  -5  16   5 2710.60 151.699   2
  -5  16   4 106.264 48.3773   2
  -5  16   4 37.5184 43.9380   3
   5  16  -3 2172.01 80.8202   3
  -5  16   3 2246.92 147.209   3
  -5  16   3 2147.02 126.548   2
   5  16  -2 2771.49 87.6880   3
  -5  16   2 2704.60 161.180   3
  -5  16   2 2760.20 137.248   2
  -5  16   1-21.6980 54.5411   3
   5  16  -1 33.2944 14.2597   3
  -5  16   1 9.10675 30.7980   2
  -5  16   0 39.0133 50.3908   3
   5  16   0 83.3676 15.2108   3
  -5  16   0 87.9198 32.1966   2
  -5  16  -1 867.197 94.0007   3
  -5  16  -1 872.652 69.5711   2
  -5  16  -2 774.723 91.5894   3
  -5  16  -2 627.078 57.5214   2
  -5  16  -3 1064.22 102.121   3
  -5  16  -3 1058.37 68.6589   2
  -5  16  -4 681.941 89.6173   3
  -5  16  -4 518.706 48.0655   2
  -5  16  -5 1711.75 79.2062   2
  -5  16  -6 160.023 26.6175   2
   5  16  13 1873.76 128.673   2
   5  16  14 75.3546 49.7369   2
   5  16  15 372.880 71.3891   2
   5  16  15 422.018 77.2777   4
   5  16  16 240.547 64.0027   2
   5  16  17-34.8543 50.4056   2
   5  16  18-23.2312 56.3035   2
   5  16  19-135.838 65.2053   2
  -5  17  18 120.892 81.4779   2
  -5  17  18 320.182 110.727   4
  -5  17  17 915.505 134.429   2
  -5  17  17 921.047 138.813   4
  -5  17  16 319.790 93.5583   2
  -5  17  16 525.755 115.657   4
  -5  17  15 729.183 116.504   2
  -5  17  15 919.629 130.706   4
  -5  17  14 108.856 61.8381   2
  -5  17  14 243.958 80.6959   4
  -5  17  13-44.9247 65.6984   2
  -5  17  13-23.0691 60.3690   4
  -5  17  12 604.104 100.693   2
  -5  17  12 521.311 93.3662   4
  -5  17  11 1136.34 126.757   2
  -5  17  11 1062.93 123.183   4
  -5  17  10 9.95846 54.8281   2
  -5  17  10 9.68134 57.6553   4
  -5  17   9 2742.78 185.211   3
  -5  17   9 2659.17 171.511   2
  -5  17   8 1259.47 116.512   2
  -5  17   8 1002.70 112.284   3
  -5  17   7 443.512 77.6547   2
  -5  17   7 478.984 87.2746   3
  -5  17   6 100.375 51.9037   2
  -5  17   6 96.8445 57.0280   3
  -5  17   5 277.363 61.6972   2
  -5  17   5 267.422 70.0398   3
  -5  17   4 46.9541 46.3799   2
  -5  17   4 33.3026 48.0262   3
   5  17  -3 1782.43 76.3257   3
  -5  17   3 1743.19 134.643   3
  -5  17   3 1777.86 117.333   2
   5  17  -2 396.935 34.8223   3
  -5  17   2 264.107 60.1888   3
  -5  17   2 346.007 57.2224   2
  -5  17   1 3006.55 169.350   3
   5  17  -1 2882.39 90.8089   3
  -5  17   1 3248.52 143.170   2
  -5  17   0 2606.77 158.485   3
   5  17   0 2541.26 80.7295   3
  -5  17   0 2365.24 124.165   2
  -5  17  -1 3844.23 190.561   3
  -5  17  -1 3548.30 142.273   2
  -5  17  -2 842.953 93.9999   3
  -5  17  -2 801.240 64.7943   2
  -5  17  -3 322.291 72.3673   3
  -5  17  -3 297.044 41.5568   2
  -5  17  -4 198.063 66.4715   3
  -5  17  -4 144.188 31.2315   2
  -5  17  -5 1088.67 110.286   3
  -5  17  -5 852.883 58.5294   2
  -5  17  -6 15.1153 21.6791   2
   5  17  13 589.555 82.8268   2
   5  17  14 153.497 58.2744   2
   5  17  15 809.463 95.5714   4
   5  17  15 727.660 91.8470   2
   5  17  16 67.5616 56.1911   2
   5  17  17 45.1138 48.6379   2
   5  17  18-77.9240 58.6986   2
   5  17  19-122.186 72.2675   2
  -5  18  17-39.8098 77.4456   2
  -5  18  17 186.134 90.0043   4
  -5  18  16 192.797 84.1092   2
  -5  18  16 152.102 87.1898   4
  -5  18  15 16.2771 73.1137   2
  -5  18  15 424.422 111.037   4
  -5  18  14 582.009 103.643   2
  -5  18  14 626.803 108.951   4
  -5  18  13 3334.11 219.408   4
  -5  18  13 3582.47 226.219   2
  -5  18  12-74.4878 57.1589   2
  -5  18  12-18.8555 63.2627   4
  -5  18  11 3761.59 224.110   4
  -5  18  11 3629.06 217.095   2
  -5  18  10 377.453 90.0997   2
  -5  18   9 105.127 61.7492   2
  -5  18   9 34.1804 52.3597   3
  -5  18   8 43.6435 57.4465   2
  -5  18   8-53.3566 68.6007   3
  -5  18   7 2405.39 169.019   3
  -5  18   7 2388.87 157.199   2
  -5  18   6 1116.01 107.397   2
  -5  18   6 969.052 109.600   3
  -5  18   5 3052.23 183.615   3
  -5  18   5 3243.31 170.711   2
  -5  18   4 141.907 58.8107   2
   5  18  -4 27.9475 23.5144   3
  -5  18   4-20.0114 52.3705   3
   5  18  -3 4813.49 138.412   3
  -5  18   3 5018.22 230.950   3
  -5  18   3 4346.35 188.394   2
   5  18  -2 1105.11 58.9299   3
  -5  18   2 884.301 98.2548   3
  -5  18   2 1016.27 86.8550   2
  -5  18   1 469.797 77.7285   3
  -5  18   1 499.597 64.2782   2
  -5  18   0 1637.22 129.337   3
  -5  18   0 1622.64 100.933   2
  -5  18  -1 308.544 65.7322   3
  -5  18  -1 341.504 50.0427   2
  -5  18  -2 1758.99 134.270   3
  -5  18  -2 1638.20 94.6828   2
  -5  18  -3 868.349 102.415   3
  -5  18  -3 762.300 63.9685   2
  -5  18  -4 1098.75 111.779   3
  -5  18  -4 910.623 65.4758   2
  -5  18  -5 7550.03 278.244   3
  -5  18  -5 7009.48 190.671   2
   5  18  13 2128.83 141.964   2
   5  18  14 87.4188 56.3928   2
   5  18  15 524.515 83.7747   2
   5  18  16 9.44390 48.0578   2
   5  18  17-83.3692 60.8139   2
   5  18  18 196.917 64.9657   2
   5  18  19-60.7119 68.6045   2
  -5  19  17-10.6732 80.6145   2
  -5  19  17 40.9457 85.2298   4
  -5  19  16 109.617 87.5946   4
  -5  19  16 67.8301 69.3324   2
  -5  19  15 95.8140 82.5079   2
  -5  19  15 82.5665 73.8320   4
  -5  19  14 77.3020 63.1647   2
  -5  19  14 60.6907 64.2675   4
  -5  19  13-25.9375 69.1683   2
  -5  19  13 47.1968 57.3843   4
  -5  19  12 11.6900 69.0083   2
  -5  19  12 50.7996 73.3625   4
  -5  19  11 143.573 75.8848   2
  -5  19  11 3.30021 65.3548   4
  -5  19  10 114.261 67.3246   2
  -5  19  10 174.669 81.3111   3
  -5  19   9 1387.72 139.636   3
  -5  19   9 1406.24 131.903   2
  -5  19   8-105.786 65.4542   2
  -5  19   8-6.13704 66.5737   3
  -5  19   7 48.1228 46.2879   2
  -5  19   7 52.2831 54.8861   3
  -5  19   6 152.333 59.2271   2
  -5  19   6 158.478 67.0550   3
  -5  19   5 85.9692 47.8017   2
  -5  19   5-66.7156 65.0907   3
  -5  19   4 892.240 104.177   3
  -5  19   4 814.575 87.7403   2
  -5  19   3 53.6503 58.1817   3
  -5  19   3 141.310 45.2008   2
  -5  19   2 433.721 75.8728   3
  -5  19   2 381.212 61.0499   2
  -5  19   1 160.727 63.3489   3
  -5  19   1 252.493 52.3160   2
  -5  19   0-12.9942 53.0607   3
  -5  19   0 7.31965 31.9599   2
  -5  19  -1-19.1392 47.7898   3
  -5  19  -1-13.9562 35.0130   2
  -5  19  -2 3103.66 180.972   3
  -5  19  -2 2949.36 134.132   2
  -5  19  -3 593.700 93.9542   3
  -5  19  -3 451.246 53.1561   2
  -5  19  -4 1331.84 121.094   3
  -5  19  -4 1113.33 75.0313   2
  -5  19  -5 93.7002 61.8554   3
  -5  19  -5 35.7151 25.4315   2
  -5  19  -6 1177.41 120.114   3
   5  19  13 295.888 68.7431   2
   5  19  14 82.3990 58.5936   2
   5  19  15 142.327 64.3075   2
   5  19  16-64.2103 56.5177   2
   5  19  17-38.6618 57.8022   2
   5  19  18-84.7397 60.9210   2
   5  19  19-96.8470 71.1171   2
  -5  20  16 73.4644 74.0648   2
  -5  20  16 98.7773 83.1813   4
  -5  20  15 554.361 117.336   2
  -5  20  15 752.014 129.577   4
  -5  20  14-1.76083 73.3401   2
  -5  20  14-4.21088 72.7106   4
  -5  20  13 1699.34 167.393   4
  -5  20  13 1780.57 166.118   2
  -5  20  12 295.285 83.9310   2
  -5  20  12 247.541 80.4588   4
  -5  20  11 1983.51 165.970   2
  -5  20  10 674.585 102.310   2
  -5  20  10 491.255 97.2352   3
  -5  20   9 125.553 54.2230   2
  -5  20   9 157.802 73.2263   3
  -5  20   8 115.754 59.0425   2
  -5  20   8 9.45623 55.6785   3
  -5  20   7 878.785 103.104   2
  -5  20   7 854.051 109.508   3
  -5  20   6 722.361 94.5497   2
  -5  20   6 713.399 105.745   3
  -5  20   5 7359.79 303.338   3
  -5  20   5 7299.03 270.861   2
  -5  20   4 62.2822 52.1075   3
  -5  20   4 64.6263 43.9941   2
  -5  20   3 2256.55 140.008   2
  -5  20   3 2390.63 165.559   3
  -5  20   2 1172.64 120.327   3
  -5  20   2 946.521 87.7937   2
  -5  20   1 1579.99 132.221   3
  -5  20   1 1550.89 107.744   2
  -5  20   0 670.780 92.8511   3
  -5  20   0 674.045 70.5139   2
  -5  20  -1 1651.19 134.011   3
  -5  20  -1 1682.86 106.806   2
  -5  20  -2 273.318 75.1137   3
  -5  20  -2 254.011 47.0062   2
  -5  20  -3 2166.78 156.671   3
  -5  20  -3 2039.29 108.160   2
  -5  20  -4 542.037 93.6758   3
  -5  20  -4 319.194 47.9311   2
  -5  20  -5 1876.37 145.888   3
  -5  20  -6 245.840 78.8581   3
   5  20  14 185.064 64.0425   2
   5  20  15 412.297 80.4790   2
   5  20  16 15.6120 49.4763   2
   5  20  17 11.7202 55.2491   2
   5  20  18 29.2427 53.6662   2
   5  20  19 91.2546 59.5629   2
  -5  21  15 41.1299 61.2447   2
  -5  21  15-28.4690 73.7000   4
  -5  21  14 384.094 104.361   2
  -5  21  14 257.132 92.0460   4
  -5  21  13 122.327 70.3106   2
  -5  21  13 64.3425 73.8017   4
  -5  21  12 358.870 90.9014   2
  -5  21  12 368.743 90.1500   4
  -5  21  11 95.8342 74.3889   2
  -5  21  10 175.000 72.0388   2
  -5  21  10 128.333 61.2090   3
  -5  21   9 441.782 89.3642   2
  -5  21   9 190.804 64.3120   3
  -5  21   8 187.740 69.3277   2
  -5  21   8 161.176 63.6449   3
  -5  21   7 76.2020 61.4162   2
  -5  21   7-39.6738 60.7722   3
  -5  21   6 428.186 81.1676   2
  -5  21   6 332.882 79.8121   3
  -5  21   5 166.103 78.7560   3
  -5  21   5 2.70305 52.3519   2
  -5  21   4 1297.52 133.733   3
  -5  21   4 1132.90 106.461   2
  -5  21   3 64.3402 51.5099   3
  -5  21   3 54.6957 45.7075   2
  -5  21   2 596.474 94.5277   3
  -5  21   2 777.407 86.1083   2
  -5  21   1-17.4374 70.1536   3
  -5  21   1 36.4822 39.2901   2
  -5  21   0-150.445 79.8856   3
  -5  21   0-94.2945 45.7396   2
  -5  21  -1 323.187 77.2935   3
  -5  21  -1 381.027 56.6448   2
  -5  21  -2 144.513 70.6443   3
  -5  21  -2 66.2515 40.3361   2
  -5  21  -3 1259.88 127.945   3
  -5  21  -3 1162.44 86.8934   2
  -5  21  -4 1520.72 139.747   3
  -5  21  -4 1183.03 82.3938   2
  -5  21  -5 319.008 73.9347   3
  -5  21  -6 1000.54 121.587   3
  -5  21  -7 132.271 64.4458   3
   5  21  14 592.400 91.7331   2
   5  21  15 61.4944 57.0390   2
   5  21  16 377.154 82.3289   2
   5  21  17-43.3829 62.7783   2
   5  21  18 34.6336 66.2815   2
  -5  22  15 415.761 104.981   2
  -5  22  15 267.852 91.5682   4
  -5  22  14 160.210 80.2105   2
  -5  22  14 207.435 78.2895   4
  -5  22  13 1357.35 155.198   2
  -5  22  13 1397.35 161.272   4
  -5  22  12 309.840 79.9055   2
  -5  22  12 150.070 79.2057   4
  -5  22  11 825.438 123.958   2
  -5  22  10 26.3456 55.2481   2
  -5  22  10-9.69080 59.0556   3
  -5  22   9 147.407 74.8211   2
  -5  22   9 8.80226 55.6243   3
  -5  22   8 2.20384 58.5692   2
  -5  22   8-35.1503 59.7185   3
  -5  22   7 1824.82 161.467   3
  -5  22   7 1973.17 150.904   2
  -5  22   6 134.474 66.3899   3
  -5  22   6 149.559 65.9950   2
  -5  22   5 3810.99 225.055   3
  -5  22   5 3672.28 198.483   2
  -5  22   4 865.198 111.377   3
  -5  22   4 765.637 94.1201   2
  -5  22   3 3146.78 198.554   3
  -5  22   3 2824.54 161.059   2
  -5  22   2 776.982 106.481   3
  -5  22   2 746.441 82.8849   2
  -5  22   1 326.745 60.3780   2
  -5  22   1 338.672 75.5429   3
  -5  22   0-75.6265 64.1401   3
  -5  22   0-45.2961 41.1872   2
  -5  22  -1 1079.08 116.151   3
  -5  22  -1 1187.32 94.9744   2
  -5  22  -2 327.227 53.1743   2
  -5  22  -2 269.095 71.2538   3
  -5  22  -3 2554.01 176.167   3
  -5  22  -3 2504.03 126.880   2
  -5  22  -4 2549.71 179.742   3
  -5  22  -5 850.157 107.198   3
  -5  22  -6 109.944 71.5755   3
  -5  22  -7 254.500 94.1614   3
   5  22  14 275.118 73.5000   2
   5  22  15 116.501 66.2044   2
   5  22  16 131.784 71.3546   2
   5  22  17-54.0238 69.4729   2
  -5  23  14 21.3605 75.5700   2
  -5  23  14-85.1110 69.4075   4
  -5  23  13-20.3341 59.4595   4
  -5  23  13 39.9383 70.0094   2
  -5  23  12 37.2542 76.2711   2
  -5  23  11 62.1383 63.6504   2
  -5  23  10 779.750 116.456   2
  -5  23  10 781.463 124.343   3
  -5  23   9 570.541 96.5304   2
  -5  23   9 683.578 116.557   3
  -5  23   8 538.652 95.0906   2
  -5  23   8 550.701 102.046   3
  -5  23   7 652.878 101.405   2
  -5  23   7 557.996 98.4544   3
  -5  23   6 52.6642 59.3144   3
  -5  23   6 41.2426 48.0159   2
  -5  23   5 297.211 78.3963   3
  -5  23   5 293.082 71.7907   2
  -5  23   4 997.664 123.223   3
  -5  23   4 949.505 104.825   2
  -5  23   3 60.4506 59.1515   3
  -5  23   3-51.4144 54.2226   2
  -5  23   2 273.013 69.8818   3
  -5  23   2 230.215 57.6106   2
  -5  23   1 939.088 111.755   3
  -5  23   1 931.473 92.0097   2
  -5  23   0 126.515 59.4281   3
  -5  23   0-5.34782 39.8695   2
  -5  23  -1 1585.07 142.305   3
  -5  23  -1 1491.99 107.615   2
  -5  23  -2 80.2430 55.5763   3
  -5  23  -2 131.934 47.0679   2
  -5  23  -3 756.760 111.322   3
  -5  23  -3 631.943 71.5152   2
  -5  23  -4 659.945 102.285   3
  -5  23  -5 155.333 69.0487   3
  -5  23  -6 1345.56 136.280   3
  -5  23  -7 1045.95 124.170   3
  -5  23  -8 48.3472 65.6205   3
   5  23  14 266.662 75.5895   2
   5  23  15 89.6133 67.7960   2
   5  23  16 40.2227 64.6220   2
  -5  24  13 341.898 102.530   2
  -5  24  13 107.608 80.7396   4
  -5  24  12 118.429 67.6695   2
  -5  24  11 203.535 81.6409   2
  -5  24  10 471.941 99.4369   2
  -5  24  10 330.964 97.3678   3
  -5  24   9-0.81152 60.9549   2
  -5  24   9 70.7882 67.4178   3
  -5  24   8 90.0390 64.0985   2
  -5  24   8 67.3678 57.8722   3
  -5  24   7 800.933 110.396   2
  -5  24   7 844.678 117.052   3
  -5  24   6 134.337 64.3446   3
  -5  24   6 141.411 66.0087   2
  -5  24   5 2016.80 170.699   3
  -5  24   5 1711.95 139.245   2
  -5  24   4 243.378 70.9380   3
  -5  24   4 195.179 64.6239   2
  -5  24   3 494.986 93.8708   3
  -5  24   3 388.217 70.4456   2
  -5  24   2 263.267 77.9344   3
  -5  24   2 245.061 60.1245   2
  -5  24   1 37.6954 68.1978   3
  -5  24   1-17.3281 40.3441   2
  -5  24   0 49.9436 66.5061   3
  -5  24   0 40.0372 45.5726   2
  -5  24  -1 318.809 83.5574   3
  -5  24  -1 271.973 58.7459   2
  -5  24  -2-54.4871 57.5133   3
  -5  24  -2 76.2477 40.1888   2
  -5  24  -3 588.426 102.514   3
  -5  24  -4-3.44525 56.6378   3
  -5  24  -5 27.7666 66.0729   3
  -5  24  -6 190.536 67.5955   3
  -5  24  -7 77.7483 67.6999   3
  -5  24  -8 585.966 104.793   3
   5  24  13 324.043 81.5476   2
   5  24  14 169.325 67.5833   2
  -5  25  12 186.886 82.0127   2
  -5  25  11 798.717 120.948   2
  -5  25  10 282.046 87.3623   2
  -5  25  10 314.151 99.8112   3
  -5  25   9 611.540 101.511   2
  -5  25   9 615.855 112.726   3
  -5  25   8 550.924 100.499   2
  -5  25   8 607.651 107.598   3
  -5  25   7 1031.58 135.101   3
  -5  25   7 1156.83 129.149   2
  -5  25   6-0.39894 65.1938   3
  -5  25   6-9.92552 50.3398   2
  -5  25   5 856.531 121.915   3
  -5  25   5 951.477 112.930   2
  -5  25   4 448.901 100.380   3
  -5  25   4 437.348 76.0951   2
  -5  25   3 345.482 93.3188   3
  -5  25   3 225.914 61.4122   2
  -5  25   2 719.298 108.531   3
  -5  25   2 550.117 80.7604   2
  -5  25   1 1714.97 152.700   3
  -5  25   1 1435.04 117.553   2
  -5  25   0 446.918 87.9982   3
  -5  25   0 278.977 60.2894   2
  -5  25  -1 2571.48 189.714   3
  -5  25  -1 2077.16 132.744   2
  -5  25  -2 63.9630 61.6580   3
  -5  25  -2 70.2242 41.8858   2
  -5  25  -3 702.822 108.396   3
  -5  25  -4 551.730 99.4213   3
  -5  25  -5 724.079 112.838   3
  -5  25  -6 456.944 94.4617   3
  -5  25  -7 627.792 102.034   3
  -5  25  -8 433.157 93.9621   3
  -5  25  -9 1322.27 144.199   3
   5  25  13 206.489 78.5936   2
  -5  26  12 150.857 83.2072   2
  -5  26  11 95.1401 68.7382   2
  -5  26  10 67.4729 73.9985   2
  -5  26  10 3.34677 74.4256   3
  -5  26   9 569.292 102.522   2
  -5  26   9 700.877 117.746   3
  -5  26   8 66.6987 67.5725   2
  -5  26   8 40.4838 66.7739   3
  -5  26   7 356.963 101.926   3
  -5  26   7 392.553 87.3713   2
  -5  26   6 82.0215 69.9885   3
  -5  26   6-8.64766 60.6150   2
  -5  26   5 58.0689 70.1665   3
  -5  26   5-92.2798 71.5961   2
  -5  26   4 114.538 64.0343   3
  -5  26   4 124.293 49.8948   2
  -5  26   3 16.8420 63.0945   3
  -5  26   3 52.7387 48.5731   2
  -5  26   2 304.717 87.4749   3
  -5  26   2 144.955 57.5584   2
  -5  26   1 77.6623 75.1011   3
  -5  26   1-39.8162 53.6359   2
  -5  26   0 26.5031 51.9161   3
  -5  26   0-12.8751 47.2047   2
  -5  26  -1 192.181 76.3942   3
  -5  26  -1 156.418 50.6966   2
  -5  26  -2 29.7843 61.8032   3
  -5  26  -3 66.0709 63.0661   3
  -5  26  -4 6.54968 55.1446   3
  -5  26  -5 62.4708 70.1992   3
  -5  26  -6 91.4055 73.2588   3
  -5  26  -7 85.8724 73.9713   3
  -5  26  -8 414.801 101.228   3
  -5  26  -9 270.914 94.6504   3
  -5  26 -10 219.005 86.6506   3
  -5  27  11 29.1627 75.9313   2
  -5  27  10 453.981 96.3041   2
  -5  27   9 1170.71 141.156   2
  -5  27   9 945.451 133.307   3
  -5  27   8 622.622 106.803   2
  -5  27   8 688.408 123.899   3
  -5  27   7 1507.50 166.302   3
  -5  27   7 1394.40 141.974   2
  -5  27   6 252.815 86.2670   3
  -5  27   6 20.9381 61.8294   2
  -5  27   5 280.898 88.0796   3
  -5  27   5 193.387 63.8132   2
  -5  27   4-132.933 86.8772   3
  -5  27   4-57.4741 60.4937   2
  -5  27   3 183.732 79.9292   3
  -5  27   3 122.614 55.8030   2
  -5  27   2 565.134 100.838   3
  -5  27   2 322.561 73.2241   2
  -5  27   1 1465.85 153.219   3
  -5  27   1 1338.81 120.345   2
  -5  27   0 673.740 114.784   3
  -5  27   0 564.923 80.6489   2
  -5  27  -1 1168.60 134.894   3
  -5  27  -2 18.6935 71.1301   3
  -5  27  -3-68.2947 76.2191   3
  -5  27  -4 140.702 67.9858   3
  -5  27  -5 104.727 68.3911   3
  -5  27  -6 366.964 101.074   3
  -5  27  -7 2587.61 200.792   3
  -5  27  -8 130.982 84.1707   3
  -5  27  -9 501.735 106.818   3
  -5  28  10 187.050 77.0039   2
  -5  28   9-50.5439 67.1730   2
  -5  28   8 160.097 76.1463   2
  -5  28   7 407.904 93.9158   3
  -5  28   7 277.278 72.7222   2
  -5  28   6 138.101 86.1171   3
  -5  28   6-121.305 79.1712   2
  -5  28   5 31.5073 72.2771   3
  -5  28   5-27.2569 67.3475   2
  -5  28   4 59.3684 57.0666   3
  -5  28   4-181.420 78.2932   2
  -5  28   3 165.056 81.0548   3
  -5  28   3-32.7440 62.2831   2
  -5  28   2 135.795 73.7518   3
  -5  28   2-84.3210 65.1755   2
  -5  28   1 244.430 77.9686   3
  -5  28   1 343.736 66.9101   2
  -5  28   0 388.731 99.3453   3
  -5  28   0 238.508 66.0907   2
  -5  28  -1 88.0340 61.1884   3
  -5  28  -2 210.708 83.8672   3
  -5  28  -3-6.53974 64.3679   3
  -5  28  -4 17.2137 52.4453   3
  -5  28  -5 91.2480 70.2612   3
  -5  28  -6 51.2417 76.8343   3
  -5  28  -7 195.605 86.9124   3
  -5  29   8 141.835 65.8737   2
  -5  29   7 433.432 91.9446   2
  -5  29   6 54.0713 72.9136   2
  -5  29   5 288.251 90.3412   3
  -5  29   5-12.7102 67.7474   2
  -5  29   4-193.278 92.8672   3
  -5  29   4-59.9227 65.9953   2
  -5  29   3 35.8204 61.1508   3
  -5  29   3-14.7623 59.6968   2
  -5  29   2 122.455 80.6627   3
  -5  29   2-8.44707 56.4821   2
  -5  29   1 1045.30 138.349   3
  -5  29   1 1001.76 111.428   2
  -5  29   0 70.5658 69.1879   3
  -5  29  -1 388.452 88.0129   3
  -5  29  -2 71.3913 77.2141   3
  -5  29  -3 56.5555 69.7715   3
  -5  29  -4-57.7049 63.2099   3
  -5  30   7-38.7992 78.4530   2
  -5  30   6-180.895 89.3014   2
  -5  30   5-77.4697 80.8929   2
  -5  30   4 153.425 57.5222   2
  -5  30   3 544.057 94.3086   2
  -5  30   2-25.1502 59.6647   2
  -5  31   6-144.398 91.2826   2
  -5  31   5-110.827 85.2425   2
  -5  31   4-49.1617 73.9959   2
  -5  31   3-44.2307 63.8858   2
  -5  32   4-19.0635 72.6562   2
  -6   0  15 59.1277 69.4904   2
  -6   0  14 8694.01 340.587   2
  -6   0  13 120.264 80.2578   2
  -6   0  12 4903.00 249.438   2
  -6   0  11 123.320 67.2509   2
   6   0  -8 15941.8 303.590   1
   6   0  -7 12.8682 22.5003   1
   6   0  -6 2538.47 105.888   1
   6   0  -5 15.8400 26.5230   1
   6   0  -4 1845.64 96.3984   1
   6   0  -3 15.7299 19.7327   3
   6   0  -3-18.6324 32.7785   1
  -6   0   2 8384.54 201.986   3
   6   0  -2 8145.56 228.597   1
   6   0  -2 7556.23 198.439   4
   6   0  -2 8132.36 192.934   3
  -6   0   1-12.4517 21.4015   3
   6   0  -1-65.0415 41.6196   1
   6   0  -1-15.4835 18.0454   4
  -6   0   0 1817.83 80.2534   3
  -6   0  -1-16.8674 21.4849   3
   6   0   1-26.0621 23.1628   2
  -6   0  -2 4445.95 129.387   3
   6   0   2 4536.34 143.302   2
  -6   0  -3-14.3539 20.3165   3
   6   0   3 0.33446 16.5576   2
   6   0   4 30.1608 18.2637   2
   6   0   5 24.7265 19.0254   2
   6   0   9 0.70662 10.4884   2
   6   0  10 19754.6 329.030   2
   6   0  11-9.18052 54.3250   1
   6   0  12 315.802 72.6693   1
   6   0  13 35.4133 51.2008   1
   6   0  14 2980.03 183.349   1
   6   0  15 6.62425 56.3160   1
   6   0  16 3163.45 196.518   1
   6   0  17 0.93268 61.7620   1
   6   0  18 1364.26 137.353   1
   6   0  19-93.6416 70.3862   1
   6   0  20-4.42597 54.6570   1
   6   0  21 50.9247 65.0339   1
   6   0  22 259.494 78.9413   1
  -6   1  19 98.9036 82.9225   2
  -6   1  18 106.917 79.9691   2
  -6   1  17 416.463 108.774   2
  -6   1  16 182.708 77.9538   2
  -6   1  15 222.987 88.1084   2
  -6   1  14 105.762 75.1108   2
  -6   1  13 88.3277 58.8211   2
  -6   1  12 374.884 78.3531   2
  -6   1  11 103.963 60.6785   2
  -6   1  10 575.815 94.9197   2
   6  -1  -9 1963.76 71.0222   1
  -6   1   9 2325.59 152.190   2
   6  -1  -8 72.1026 24.4450   1
  -6   1   8 197.153 64.2564   2
  -6   1   7 1877.33 129.298   2
   6   1  -7 1811.48 81.8469   1
   6  -1  -7 1863.40 83.9527   1
   6  -1  -6 724.177 56.5761   1
   6   1  -6 798.453 59.3118   1
   6  -1  -5 1125.46 72.6724   1
   6   1  -5 1239.61 75.7462   1
   6   1  -4 1762.73 83.4824   3
   6  -1  -4 1827.35 95.9487   1
   6   1  -4 1745.51 93.1918   1
   6   1  -3 23.3848 19.8684   3
   6   1  -3 43.3529 31.6368   1
  -6   1   3 20.7286 23.7578   3
   6   1  -2 69.0066 21.7596   3
   6  -1  -2 69.1292 24.8680   3
  -6   1   2 25.1534 20.8617   3
  -6  -1   2 13.4025 21.0664   3
   6   1  -2 2.64979 34.1711   1
   6   1  -2 20.0246 19.8043   4
  -6   1   1 5040.81 151.108   3
  -6  -1   1 5199.46 140.023   3
   6   1  -1 4959.39 176.681   1
   6   1  -1 5193.27 144.593   4
  -6   1   0-12.9571 25.7526   3
  -6  -1   0-2.86953 16.7142   3
   6   1   0-21.2653 42.6278   1
   6   1   0-22.0259 17.9372   4
  -6   1  -1 10143.7 226.759   3
  -6  -1  -1 10142.6 210.427   3
   6  -1   1 9722.95 236.604   2
   6   1   1 10207.9 279.301   1
   6   1   1 9453.16 190.830   4
  -6  -1  -2 3815.30 111.818   3
  -6   1  -2 3660.78 121.252   3
   6  -1   2 3766.64 124.588   2
   6   1   2 3999.20 136.093   2
   6   1   2 3615.31 160.840   1
  -6   1  -3 894.687 58.2149   3
  -6  -1  -3 857.187 51.3286   3
   6   1   3 940.059 85.1075   1
   6  -1   3 905.355 54.4384   2
   6   1   3 792.358 57.1869   2
   6   1   4 1682.93 113.046   1
   6  -1   4 1721.74 71.8548   2
   6  -1   5 835.073 46.6754   2
   6   1   5 800.132 80.3901   1
   6  -1   6 360.015 29.6787   2
   6   1   6 267.689 56.0122   1
   6   1   7 1152.55 103.037   1
   6  -1   7 1211.69 49.2883   2
   6  -1   8 141.201 16.7658   2
   6   1   8 122.828 52.7939   1
   6  -1   8 111.029 12.6791   2
   6   1   9 1954.97 66.1833   2
   6  -1   9 1812.01 49.8881   2
   6   1   9 2037.92 137.357   1
   6  -1  10 648.804 27.4662   2
   6   1  10 739.064 95.2697   1
   6   1  10 696.499 40.5391   2
   6   1  11 1700.40 132.136   1
   6   1  11 1613.16 64.9990   2
   6   1  12 5201.75 232.551   1
   6   1  13 1225.83 120.803   1
   6  -1  14 412.480 80.5553   1
   6   1  14 399.853 83.1832   1
   6  -1  15 218.975 69.0034   1
   6   1  15 261.042 72.2085   1
   6  -1  16-27.1441 58.2545   1
   6   1  16 7.79637 55.4329   1
   6   1  17 1231.70 129.003   1
   6  -1  17 1087.33 122.458   1
   6  -1  18 0.13940 58.0309   1
   6   1  18 88.2322 66.2075   1
   6   1  19 292.897 85.3866   1
   6  -1  19 394.709 88.9073   1
   6   1  20 121.002 62.3400   1
   6  -1  20-13.8584 69.9365   1
   6  -1  21-5.82915 64.0438   1
   6   1  21 28.5918 61.9924   1
   6  -1  22-13.4650 57.4152   1
  -6   2  21 4.03347 78.5139   2
  -6   2  20 225.100 100.994   2
  -6   2  19 69.6716 74.8902   2
  -6   2  18 1688.06 167.278   2
  -6   2  17 126.384 69.5743   2
  -6   2  16 978.283 127.156   2
  -6   2  15 220.993 83.0408   2
  -6   2  14 1430.37 142.469   2
  -6   2  13 4207.16 227.687   2
  -6   2  12 61.4977 66.4582   2
  -6   2  11 786.938 104.691   2
  -6   2  10 8593.11 304.549   2
  -6   2   9 526.476 83.2953   2
   6  -2  -9 457.323 36.3113   1
   6  -2  -8 11874.7 246.193   1
  -6   2   8 12301.9 355.522   2
  -6   2   7 85.7876 54.3028   2
   6   2  -7-17.4494 24.0797   1
   6  -2  -7-0.56600 24.0923   1
   6   2  -6 3702.98 127.311   1
   6  -2  -6 3614.36 128.847   1
  -6   2   6 4110.57 177.675   2
   6   2  -5 298.819 43.1269   1
  -6   2   5 223.899 54.1048   2
   6   2  -4 44.8561 19.6142   3
   6   2  -4 107.294 34.1226   1
  -6   2   4 61.1621 29.5156   3
   6   2  -3 431.992 38.0354   3
  -6   2   3 412.025 48.1848   3
   6   2  -3 392.230 50.8901   1
   6   2  -2 2889.82 94.2690   3
  -6   2   2 2892.24 116.591   3
   6   2  -2 3097.07 117.369   4
   6   2  -2 2872.22 126.328   1
  -6   2   1 249.794 37.2152   3
   6   2  -1 239.850 43.3365   1
  -6  -2   1 213.373 26.4306   3
   6   2  -1 243.654 31.8856   4
   6  -2   0 26442.2 474.466   2
  -6   2   0 25116.3 459.681   3
   6   2   0 25371.2 512.951   1
  -6  -2   0 24846.7 420.360   3
   6   2   0 23305.2 428.979   4
   6   2   1 11.3303 13.5368   4
  -6   2  -1 5.43567 22.1628   3
  -6  -2  -1 13.8664 14.9123   3
   6  -2   1-10.7865 20.9677   2
   6   2   1-16.3262 42.7934   1
  -6   2  -2 1235.14 71.2782   3
  -6  -2  -2 1201.99 55.1824   3
   6  -2   2 1271.89 67.0332   2
   6   2   2 1150.24 91.8074   1
   6   2   2 1061.68 43.8187   4
  -6   2  -3 3165.38 115.188   3
  -6  -2  -3 3061.40 94.9361   3
   6  -2   3 2997.19 100.661   2
   6   2   3 3294.83 155.363   1
   6  -2   4 274.778 26.5058   2
   6   2   4 194.386 51.1971   1
   6  -2   5 479.836 30.6823   2
   6   2   5 385.800 62.9705   1
   6  -2   6 1646.21 52.8159   2
   6   2   6 1469.69 112.526   1
   6   2   7 91.7835 47.8388   1
   6   2   8 10395.8 321.274   1
   6   2   9 126.273 57.4504   1
   6   2  10 2161.98 148.149   1
   6   2  10 2244.84 79.4308   2
   6   2  11 105.499 57.4685   1
   6   2  11 95.2641 21.7665   2
   6   2  12 1591.30 130.290   1
   6   2  12 1610.30 73.6632   2
   6   2  13 195.713 64.0328   1
   6   2  14 1352.22 125.611   1
   6   2  15 105.012 56.5014   1
   6   2  16 1590.10 141.354   1
   6  -2  16 1569.22 140.193   1
   6   2  17-65.4883 65.8103   1
   6  -2  17-55.7605 58.2097   1
   6   2  18 718.176 105.263   1
   6  -2  18 658.515 103.425   1
   6  -2  19-4.45177 59.8646   1
   6   2  19 22.2542 53.9676   1
   6   2  20 108.878 70.7949   1
   6  -2  20-0.37694 62.2717   1
   6  -2  21 125.459 69.0690   1
   6   2  21 319.531 81.8608   1
   6  -2  22-48.4013 58.7842   1
  -6   3  21 22.2644 79.9887   2
  -6   3  20 213.145 93.5219   2
  -6   3  19 288.111 93.3944   2
  -6   3  18 418.768 105.228   2
  -6   3  17-58.4130 84.3106   2
  -6   3  16 110.509 69.2111   2
  -6   3  15 65.0285 73.1153   2
  -6   3  14 1709.53 150.850   2
  -6   3  13 80.7636 71.1022   2
  -6   3  12 7544.07 300.578   2
  -6   3  11 2525.89 167.064   2
   6  -3 -10 82.9957 16.4316   1
  -6   3  10 14.3026 50.2014   2
   6  -3  -9 82.2952 21.1917   1
  -6   3   9 53.4778 55.9461   2
  -6   3   8 903.340 94.7412   2
   6  -3  -8 753.061 50.8736   1
  -6   3   7 5119.96 210.826   2
   6  -3  -7 4853.71 145.654   1
   6   3  -6 4437.17 143.511   1
  -6   3   6 4667.84 194.978   2
  -6   3   5 500.257 63.8984   2
   6   3  -5 569.079 47.4700   3
   6   3  -5 628.266 56.9931   1
   6   3  -4 944.064 56.2994   3
   6   3  -4 971.893 71.5627   1
  -6   3   4 816.235 68.4138   3
  -6   3   4 942.840 83.4327   2
   6   3  -3 318.460 31.4238   3
  -6   3   3 417.060 59.6221   2
   6   3  -3 346.143 50.0246   1
  -6   3   3 402.235 48.9607   3
  -6   3   2 4751.65 158.431   3
   6   3  -2 4704.06 169.324   1
   6   3  -2 4582.82 151.456   4
   6   3  -2 4908.95 122.677   3
  -6   3   1 1544.52 85.9240   3
   6   3  -1 1624.32 100.046   1
   6   3  -1 1554.33 78.0606   4
   6  -3   0 6726.57 183.865   2
  -6   3   0 6675.01 187.067   3
  -6  -3   0 6556.30 143.983   3
   6   3   0 6685.98 215.703   1
   6  -3   1 8184.05 202.645   2
  -6   3  -1 8128.06 211.125   3
  -6  -3  -1 8305.16 168.175   3
   6   3   1 8807.75 253.959   1
   6  -3   2 2720.64 97.7976   2
   6   3   2 2950.77 143.018   1
  -6   3  -2 2957.93 115.218   3
  -6  -3  -2 2885.87 83.8555   3
  -6   3  -3 637.980 54.6122   3
  -6  -3  -3 671.926 38.7165   3
   6   3   3 672.617 77.8643   1
   6  -3   3 665.092 42.2100   2
   6   3   4 6124.26 223.237   1
   6  -3   4 6174.61 137.164   2
   6   3   5 1476.58 113.486   1
   6  -3   5 1531.11 50.3486   2
   6   3   6 1451.94 113.614   1
   6   3   7 1648.93 122.736   1
   6   3   8 102.852 61.1029   1
   6   3   9 3007.87 173.436   1
   6   3  10 5410.17 235.225   1
   6   3  10 5882.26 148.377   2
   6   3  11 42.8663 55.3582   1
   6   3  11 32.9640 19.5253   2
   6   3  12 2569.02 170.985   1
   6   3  12 2666.08 103.249   2
   6   3  13-82.1105 62.2988   1
   6   3  14 279.152 70.4867   1
   6   3  15 346.601 78.4246   1
   6   3  16-67.8670 62.6151   1
   6   3  17 57.6646 57.8599   1
   6  -3  18-27.7794 67.5067   1
   6   3  18 93.6861 58.1929   1
   6  -3  19 489.967 95.1028   1
   6   3  19 468.802 86.9692   1
   6  -3  20-9.47092 60.9966   1
   6   3  20 175.748 77.2797   1
   6  -3  21 64.9620 68.8467   1
   6   3  21 232.844 75.5909   1
   6  -3  22 219.105 78.7544   1
  -6   4  21 232.564 90.5545   2
  -6   4  20 82.6893 78.9652   2
  -6   4  19 163.354 92.8032   2
  -6   4  18 489.148 111.502   2
  -6   4  17 199.002 86.7121   2
  -6   4  16 1792.41 163.160   2
  -6   4  15 407.368 97.2520   2
  -6   4  14 40.1410 56.9035   2
  -6   4  13 634.164 102.282   2
  -6   4  12 144.856 65.9605   2
  -6   4  11 898.978 102.298   2
   6  -4 -10 1144.95 49.9992   1
  -6   4  10 1206.01 112.314   2
   6  -4  -9 2711.08 92.2582   1
  -6   4   9 2768.18 164.897   2
  -6   4   8 6006.27 237.972   2
  -6   4   7 167.475 55.5124   2
  -6   4   6 699.678 79.2425   2
   6   4  -5 336.119 36.9735   3
  -6   4   5 436.811 55.7848   3
   6   4  -5 373.077 46.5497   1
  -6   4   5 322.815 57.2931   2
  -6   4   4 3.74981 34.9546   2
   6   4  -4 11.2539 29.0703   1
   6   4  -4-12.7799 18.4885   3
  -6   4   4 24.2742 28.2508   3
   6   4  -3 68.5048 37.3621   1
  -6   4   3 77.0662 40.0619   2
   6   4  -3 87.6588 18.8552   3
  -6   4   3 57.8061 27.8225   3
  -6   4   3 82.2434 32.4038   4
  -6   4   2 3514.42 136.883   3
   6   4  -2 3674.94 145.459   1
  -6   4   2 3583.56 143.255   2
  -6   4   2 3697.17 129.879   4
   6   4  -2 3419.93 92.6426   3
  -6   4   1 2849.22 120.064   3
   6   4  -1 2758.54 129.974   1
  -6   4   1 2887.91 106.140   4
  -6   4   0 6600.31 191.842   3
   6   4   0 6476.55 213.669   1
   6  -4   0 6614.83 177.895   2
  -6   4  -1 4731.23 155.900   3
  -6  -4  -1 4723.98 102.726   3
   6   4   1 4715.96 180.039   1
   6  -4   1 4475.15 134.366   2
  -6   4  -2 2680.50 115.980   3
  -6  -4  -2 2818.96 74.5398   3
   6   4   2 2792.17 141.202   1
   6  -4   2 2860.80 94.6962   2
  -6   4  -3 653.893 59.4882   3
  -6  -4  -3 729.261 36.3451   3
   6   4   3 681.245 77.2254   1
   6  -4   3 638.856 40.0706   2
   6   4   4 197.784 57.2887   1
   6  -4   4 103.716 15.3242   2
   6  -4   5 1605.71 42.8106   2
   6   4   5 1705.87 116.442   1
   6   4   6 514.534 75.7679   1
   6   4   6 470.671 22.4500   4
   6   4   7 1133.81 104.061   1
   6   4   7 957.221 34.3703   4
   6   4   8 2793.35 159.502   1
   6   4   9 57.0828 54.6634   1
   6   4  10 50.3213 50.3884   1
   6   4  11 1295.59 69.9900   2
   6   4  11 1409.83 120.670   1
   6   4  12 220.942 62.0103   1
   6   4  12 272.998 36.4118   2
   6   4  13 832.891 103.017   1
   6   4  13 717.411 55.6466   2
   6   4  14 672.954 96.9143   1
   6   4  15 180.502 65.0985   1
   6   4  16 1125.62 120.661   1
   6   4  17-34.3184 56.6246   1
   6   4  18 559.528 91.0897   1
   6   4  19 184.810 73.1961   1
   6  -4  19 95.8522 62.7780   1
   6  -4  20-67.5073 69.5397   1
   6   4  20-62.6650 60.5011   1
   6   4  21 21.8684 54.7314   1
   6  -4  21-49.5333 78.6885   1
   6  -4  22 120.915 74.4698   1
  -6   5  21 115.351 96.2274   2
  -6   5  20 1108.22 153.002   2
  -6   5  19 73.4441 77.9812   2
  -6   5  18 584.569 111.523   2
  -6   5  17 102.227 75.1199   2
  -6   5  16 175.310 78.7823   2
  -6   5  15-91.2253 73.5346   2
  -6   5  14 2870.98 194.623   2
  -6   5  13 339.524 83.6632   2
  -6   5  12 3007.02 187.831   2
  -6   5  11 257.390 73.3263   2
   6  -5 -10 2709.46 86.0377   1
  -6   5  10 3031.53 175.145   2
  -6   5   9 3085.47 171.725   2
  -6   5   8 5585.48 226.551   2
  -6   5   7 64.5968 48.2679   2
  -6   5   7 110.601 47.0414   4
   6   5  -6 8393.54 214.864   3
  -6   5   6 8970.12 279.524   2
  -6   5   6 8901.45 262.419   4
   6   5  -5 4686.29 138.225   3
  -6   5   5 4973.16 183.741   3
  -6   5   5 4906.96 191.112   2
  -6   5   5 4763.83 177.113   4
   6   5  -4 6220.30 153.970   3
   6   5  -4 6233.97 188.768   1
  -6   5   4 6460.31 207.194   3
  -6   5   4 6517.09 215.645   2
  -6   5   4 6027.56 197.415   4
   6   5  -3 702.275 40.5356   3
  -6   5   3 783.269 67.0854   3
   6   5  -3 785.157 68.2337   1
  -6   5   3 805.655 73.5645   2
  -6   5   3 774.978 65.5588   4
  -6   5   2 8500.78 234.483   3
   6   5  -2 8092.27 233.377   1
  -6   5   2 8427.29 237.657   2
  -6   5   2 8249.08 216.874   4
   6   5  -1 791.617 72.4693   1
  -6   5   1 918.688 70.1323   3
  -6   5   1 890.148 69.2442   2
  -6   5   1 835.947 58.9078   4
  -6   5   0 2956.78 125.034   3
   6   5   0 2991.80 137.660   1
  -6   5   0 3369.26 123.646   2
   6  -5   0 2771.81 107.035   2
  -6   5   0 2870.92 102.284   4
   6  -5   1 177.810 27.2515   2
  -6   5  -1 214.072 39.2067   3
   6   5   1 176.296 47.0294   1
  -6   5  -1 211.360 27.1040   4
  -6   5  -2 7169.33 205.117   3
  -6  -5  -2 6777.58 123.689   3
   6   5   2 7066.66 232.944   1
   6  -5   2 6705.08 161.672   2
  -6   5  -2 7309.83 153.702   4
  -6   5  -3 168.455 36.9606   3
  -6  -5  -3 153.131 15.6039   3
   6   5   3 157.610 49.5423   1
   6  -5   3 138.222 18.9542   2
  -6   5  -3 144.198 16.9563   4
   6  -5   4 6746.83 130.712   2
   6   5   4 7258.65 242.607   1
  -6   5  -4 6610.70 121.371   4
   6   5   5 145.819 58.3381   1
   6   5   6 5073.13 209.274   1
   6   5   7 1959.65 133.628   1
   6   5   7 2040.89 64.2794   4
   6   5   8 2.76958 11.5563   4
   6   5   8-51.3094 56.3474   1
   6   5   9 330.197 29.5149   4
   6   5   9 212.119 66.5120   1
   6   5  10 2338.39 151.025   1
   6   5  11 262.370 38.4629   2
   6   5  11 164.342 59.7851   1
   6   5  12 1898.13 91.2234   2
   6   5  12 1511.14 132.750   1
   6   5  13 382.401 78.2102   1
   6   5  13 308.442 42.0167   2
   6   5  14 941.133 106.318   1
   6   5  15 65.2481 60.6814   1
   6   5  16-15.4146 59.9505   1
   6   5  17-38.9801 62.1422   1
   6   5  18 275.871 76.8764   1
   6   5  19 144.914 75.7618   1
   6   5  20 317.317 83.8666   1
   6  -5  20 160.846 71.3320   1
   6   5  21 137.708 72.6633   1
   6  -5  21-21.9912 68.8986   1
   6  -5  22 56.3620 65.6379   1
  -6   6  20 94.4228 73.6784   2
  -6   6  19 36.6377 77.7264   2
  -6   6  18 433.428 103.032   2
  -6   6  17-54.1488 72.4127   2
  -6   6  16 146.541 78.2746   2
  -6   6  15 269.081 78.4163   2
  -6   6  14 58.2123 54.1988   2
  -6   6  13 1028.88 120.859   2
  -6   6  12 395.968 84.7395   2
  -6   6  11 1313.75 122.373   2
  -6   6  10 280.194 64.5613   2
  -6   6  10 303.938 69.9262   4
  -6   6   9 1251.79 117.851   2
  -6   6   9 1330.58 122.265   4
  -6   6   8 888.409 91.4405   2
  -6   6   8 745.989 85.4587   4
  -6   6   7 2408.99 141.294   2
  -6   6   7 2557.84 140.165   4
  -6   6   6 2557.27 147.718   2
  -6   6   6 2722.03 145.536   3
  -6   6   6 2567.26 143.623   4
   6   6  -5 506.233 41.1487   3
  -6   6   5 487.049 62.7882   3
  -6   6   5 570.363 71.9477   2
  -6   6   5 457.772 59.9381   4
   6   6  -4-10.3965 16.8699   3
  -6   6   4-32.6700 40.3311   3
  -6   6   4-40.9251 42.9989   2
  -6   6   4-0.52153 31.1219   4
   6   6  -3 1348.32 53.5059   3
  -6   6   3 1552.30 99.5575   3
   6   6  -3 1384.40 90.8485   1
  -6   6   3 1528.61 99.6642   2
  -6   6   3 1523.15 93.1628   4
  -6   6   2 2073.15 110.329   3
   6   6  -2 1846.11 105.538   1
  -6   6   2 2032.79 108.085   2
  -6   6   2 2122.99 100.312   4
  -6   6   1 317.964 44.8888   3
   6   6  -1 401.492 57.1083   1
  -6   6   1 331.029 41.3933   4
  -6   6   1 328.226 46.6443   2
  -6   6   0 1478.94 94.2030   3
   6   6   0 1258.62 100.652   1
  -6   6   0 1475.89 84.4308   2
   6  -6   0 1296.23 69.2493   2
  -6   6   0 1541.04 76.6826   4
  -6   6  -1 3376.04 137.487   3
   6   6   1 3334.43 149.566   1
   6  -6   1 3301.87 105.254   2
  -6   6  -1 3254.34 118.015   2
  -6   6  -1 3201.13 104.761   4
  -6   6  -2 929.010 73.6579   3
   6   6   2 1034.26 90.1179   1
   6  -6   2 952.062 48.3125   2
  -6   6  -2 1008.42 50.8131   4
  -6   6  -3 1347.34 87.4358   3
   6   6   3 1442.68 107.025   1
   6  -6   3 1248.89 49.3811   2
  -6   6  -3 1195.49 51.3602   4
   6   6   4-18.7763 42.2231   1
   6   6   5 1818.75 126.310   1
   6   6   6 79.5597 50.2970   1
   6   6   7 377.140 72.2074   1
   6   6   8 337.039 73.9305   1
  -6   6  -8 274.524 20.0258   4
   6   6   8 299.409 28.2777   4
   6   6   9 181.691 66.5880   1
   6   6   9 300.039 32.5806   4
   6   6  10 1377.72 118.202   1
   6   6  10 1355.45 67.4163   4
   6   6  11 1426.94 121.777   1
   6   6  11 1578.18 81.9191   2
   6   6  11 1399.30 73.6940   4
   6   6  12 101.758 59.9527   1
   6   6  12 63.6957 29.1328   2
   6   6  13 1649.81 134.288   1
   6   6  13 1396.21 85.1223   2
   6   6  14 103.670 65.8519   1
   6   6  15 101.165 55.6378   1
   6   6  16 236.240 67.2238   1
   6   6  17-87.8419 57.4190   1
   6   6  18 138.679 66.8637   1
   6   6  19 327.294 81.5971   1
   6   6  20 123.581 64.3048   1
   6  -6  21 172.153 80.2285   1
   6   6  21 436.257 93.2513   1
   6  -6  22-57.2365 79.6765   1
  -6   7  20 1470.57 173.557   2
  -6   7  19-67.1426 78.4017   2
  -6   7  18-63.7518 84.0441   2
  -6   7  17 147.300 85.7600   2
  -6   7  16 533.481 104.735   2
  -6   7  15 3.64232 56.2389   2
  -6   7  14 2935.42 197.878   2
  -6   7  13 103.558 68.7464   2
  -6   7  12 4625.93 234.030   2
  -6   7  11 60.9711 53.8265   2
  -6   7  11 123.848 63.0890   4
  -6   7  10 1611.49 131.152   2
  -6   7  10 1527.28 128.657   4
  -6   7   9 595.101 85.4818   2
  -6   7   9 734.213 90.0226   4
  -6   7   8 744.274 86.9970   2
  -6   7   8 650.191 79.6289   4
  -6   7   7 697.942 80.8396   2
  -6   7   7 749.974 82.8748   4
  -6   7   6 9277.00 284.636   2
   6   7  -6 8732.59 216.412   3
  -6   7   6 8892.48 275.510   3
  -6   7   6 9298.38 277.872   4
   6   7  -5 4040.68 121.497   3
  -6   7   5 4025.47 175.381   2
  -6   7   5 4388.40 177.866   3
  -6   7   5 4262.68 169.820   4
   6   7  -4 15409.8 289.238   3
  -6   7   4 16250.1 383.858   3
  -6   7   4 16028.5 383.280   2
  -6   7   4 16727.0 374.061   4
   6   7  -3 1206.16 47.3766   3
  -6   7   3 1165.59 88.8869   3
  -6   7   3 1233.63 90.2599   2
  -6   7   3 1243.49 83.9608   4
  -6   7   2 6833.97 220.562   3
   6   7  -2 7338.89 217.246   1
  -6   7   2 6903.02 211.875   2
  -6   7   2 7063.83 202.006   4
  -6   7   1 2243.57 115.750   3
   6   7  -1 2345.55 119.385   1
  -6   7   1 2140.99 106.563   2
  -6   7   1 2285.10 100.592   4
  -6   7   0 1758.66 102.303   3
   6   7   0 1816.35 110.558   1
  -6   7   0 1927.75 94.0640   2
   6  -7   0 1705.56 78.3936   2
  -6   7   0 1862.90 85.9905   4
  -6   7  -1 227.321 37.1064   2
  -6   7  -1 235.444 44.2986   3
   6  -7   1 210.360 27.6548   2
  -6   7  -1 191.855 29.5237   4
   6   7   1 209.959 51.6945   1
  -6   7  -2 12526.4 311.742   3
   6   7   2 13192.7 335.956   1
   6  -7   2 12016.0 239.065   2
  -6   7  -2 13260.7 265.343   2
  -6   7  -3 158.445 46.0721   3
   6   7   3 167.410 59.4570   1
  -6  -7  -4 10198.8 168.302   3
   6   7   4 11090.5 312.145   1
   6   7   5 807.533 87.1020   1
   6   7   6 537.769 76.8853   1
   6   7   7 53.1939 58.8669   1
   6   7   8 170.962 63.5264   1
   6   7   9 1.31542 53.5557   1
   6   7   9 6.77289 18.5079   4
   6   7  10 687.633 93.1201   1
   6   7  10 737.434 53.6129   4
   6   7  11 107.253 62.5594   1
   6   7  11 20.0849 21.2629   4
   6   7  12 3343.52 187.415   1
   6   7  12 3868.52 141.612   2
   6   7  13 179.433 65.3938   1
   6   7  13 134.026 36.4558   2
   6   7  14 638.152 94.3897   1
   6   7  14 680.809 64.5521   2
   6   7  15 14.8084 56.9950   1
   6   7  16-4.66477 58.2429   1
   6   7  17 74.2786 56.8566   1
   6   7  18 321.878 74.5365   1
   6   7  19 38.2967 55.5260   1
   6   7  20 383.337 85.6606   1
   6   7  21 52.5101 65.1515   1
   6  -7  22 150.485 78.3273   1
  -6   8  20-12.7025 71.2156   2
  -6   8  19-12.6995 63.4148   2
  -6   8  18 195.950 74.0353   2
  -6   8  17-11.6035 74.3929   2
  -6   8  16 222.815 75.3079   2
  -6   8  15 220.722 78.5727   2
  -6   8  14 273.967 83.8018   2
  -6   8  13 185.414 80.9253   2
  -6   8  13 176.521 72.7758   4
  -6   8  12-34.5364 59.7996   2
  -6   8  12 26.4506 47.3052   4
  -6   8  11 166.725 65.1780   2
  -6   8  11 117.958 58.7344   4
  -6   8  10 143.457 50.3865   2
  -6   8  10 302.752 71.0677   4
  -6   8   9 176.332 56.7251   2
  -6   8   9 225.587 60.2636   4
  -6   8   8 218.513 56.9632   2
  -6   8   8 232.472 61.0554   4
  -6   8   7 2074.64 133.955   2
  -6   8   7 2416.81 141.483   3
  -6   8   7 2251.96 134.303   4
   6   8  -6 913.626 59.0493   3
  -6   8   6 821.876 83.9874   3
  -6   8   6 751.082 81.9610   2
  -6   8   6 913.135 86.9544   4
  -6   8   5 2316.38 132.084   2
   6   8  -5 2194.67 84.1905   3
  -6   8   5 2487.42 135.274   3
  -6   8   5 2333.05 127.721   4
   6   8  -4 1357.51 56.6982   3
  -6   8   4 1471.29 100.655   2
  -6   8   4 1433.58 101.008   3
  -6   8   4 1479.54 97.3868   4
   6   8  -3 55.2991 11.3869   3
  -6   8   3 42.7568 34.3044   3
  -6   8   3 74.7259 35.8239   2
  -6   8   3 95.5002 37.2685   4
  -6   8   2-22.6709 41.7066   3
  -6   8   2-2.29610 29.9826   2
  -6   8   2-2.51777 26.8513   4
   6   8  -1-18.8509 37.3842   1
  -6   8   1-70.3978 43.1936   3
  -6   8   1 25.8712 29.4930   2
  -6   8   1-21.9115 29.5685   4
  -6   8   0 1326.48 93.5166   3
   6   8   0 1394.05 102.011   1
  -6   8   0 1436.21 80.8064   2
  -6   8  -1 2027.70 115.546   3
   6   8   1 2061.06 118.666   1
  -6   8  -1 2091.97 93.4123   2
   6  -8   1 2078.25 80.1405   2
  -6   8  -2 2193.14 118.577   3
   6   8   2 2149.86 126.604   1
  -6   8  -2 2213.95 90.4574   2
  -6   8  -3 3884.03 159.302   3
   6   8   3 4106.00 176.214   1
   6   8   4 396.582 70.6245   1
   6   8   5 4095.53 183.813   1
  -6  -8  -5 3900.07 91.0613   3
   6   8   6 559.148 75.2763   1
   6   8   7 2003.27 134.857   1
   6   8   8 1660.82 128.668   1
   6   8   9 84.8557 54.6500   1
   6   8  10 1926.32 139.030   1
   6   8  10 2078.99 91.3620   4
   6   8  11 470.407 79.4717   1
   6   8  11 441.709 46.5786   4
   6   8  12 470.020 87.9615   1
   6   8  12 411.962 53.2336   2
   6   8  13 1386.30 125.410   1
   6   8  13 1322.94 87.6245   2
   6   8  14 35.8538 60.1925   1
   6   8  14 42.9397 35.2693   2
   6   8  15 541.992 89.1894   1
   6   8  16 193.242 73.2364   1
   6   8  17-53.4889 64.1791   1
   6   8  18-71.6866 65.3893   1
   6   8  19 75.1752 63.2298   1
   6   8  20 98.5395 69.2586   1
   6   8  21 108.481 70.5148   1
  -6   9  20 769.359 134.713   2
  -6   9  19-81.2429 81.8894   2
  -6   9  18 137.551 83.7138   2
  -6   9  17-51.4604 78.5880   2
  -6   9  16 1034.16 133.894   2
  -6   9  15 248.948 84.1833   2
  -6   9  14 1395.81 143.097   2
  -6   9  14 1225.84 129.231   4
  -6   9  13 54.5541 53.4791   2
  -6   9  13 101.843 68.3954   4
  -6   9  12 2413.06 174.082   2
  -6   9  12 2529.14 173.926   4
  -6   9  11-32.6395 60.5924   2
  -6   9  11 16.4079 52.3229   4
  -6   9  10 5939.19 252.959   2
  -6   9  10 5858.83 250.549   4
  -6   9   9 14.2696 47.3346   2
  -6   9   9-54.7217 52.1908   4
  -6   9   8 663.807 85.0106   2
  -6   9   8 673.675 85.3541   4
  -6   9   7 85.5401 52.2494   3
  -6   9   7 53.3832 47.7808   2
  -6   9   7 141.793 52.0252   4
  -6   9   6 1292.71 103.505   2
  -6   9   6 1484.28 111.970   3
  -6   9   6 1324.55 102.866   4
  -6   9   5-36.6127 44.3116   3
   6   9  -5 22.6032 16.8014   3
  -6   9   5-34.3621 44.8924   2
  -6   9   5 11.4787 38.3169   4
  -6   9   4 8558.24 263.202   2
  -6   9   4 9161.06 277.196   3
   6   9  -4 8860.00 180.153   3
  -6   9   4 8803.11 259.795   4
   6   9  -3 2978.30 70.6716   3
  -6   9   3 3027.10 141.144   2
  -6   9   3 2920.74 147.935   3
  -6   9   3 3008.13 135.871   4
  -6   9   2 1800.96 110.116   3
  -6   9   2 1617.23 98.0514   2
  -6   9   2 1476.61 91.3534   4
  -6   9   1 416.981 58.7232   3
  -6   9   1 407.687 48.0717   2
  -6   9   0 239.019 49.9124   3
   6   9   0 287.106 57.2887   1
  -6   9   0 309.760 44.8375   2
  -6   9  -1 1812.69 111.890   3
   6   9   1 1830.29 115.108   1
  -6   9  -1 1893.76 89.6156   2
  -6   9  -2 12478.9 326.491   3
   6   9   2 12829.0 339.622   1
  -6   9  -2 13056.1 272.812   2
  -6   9  -3 410.489 65.9567   3
  -6   9  -3 450.370 40.8317   2
   6   9   3 403.455 71.2218   1
   6   9   4 7427.37 250.802   1
  -6  -9  -5 347.899 19.5423   3
   6   9   5 323.915 66.8014   1
  -6  -9  -6 3141.46 88.4050   3
   6   9   6 3243.63 169.677   1
   6   9   7 183.290 60.6800   1
   6   9   8 159.272 59.9729   1
   6   9   9-12.5624 46.0479   1
   6   9  10 1984.44 141.648   1
   6   9  11 76.5041 27.5481   4
   6   9  11 86.6039 48.2991   1
   6   9  12 2217.86 156.212   1
   6   9  12 2482.95 117.878   2
   6   9  13 147.026 41.5520   2
   6   9  13 29.5124 56.4387   1
   6   9  14 798.441 75.0484   2
   6   9  14 925.162 106.350   1
   6   9  15 1354.09 97.9822   2
   6   9  15 1336.22 131.196   1
   6   9  16 21.8767 51.8658   1
   6   9  17 63.1176 54.3718   1
   6   9  18 497.109 89.5141   1
   6   9  19 32.1008 55.9678   1
   6   9  20 582.890 98.7824   1
   6   9  21 89.0852 57.8249   1
  -6  10  19-112.044 81.9449   2
  -6  10  18 709.678 120.357   2
  -6  10  17 170.061 82.1839   2
  -6  10  16 1931.92 176.476   2
  -6  10  15 101.382 63.7773   2
  -6  10  15 45.9478 56.2612   4
  -6  10  14 220.712 75.9182   2
  -6  10  14 225.037 81.2303   4
  -6  10  13 279.293 77.2903   2
  -6  10  13 256.899 78.7780   4
  -6  10  12-67.0795 69.6182   2
  -6  10  12-73.2564 57.7638   4
  -6  10  11 596.852 93.9499   2
  -6  10  11 572.433 90.4113   4
  -6  10  10 2619.87 170.606   2
  -6  10  10 2659.28 167.415   4
  -6  10   9 902.743 99.6639   2
  -6  10   9 1016.29 105.525   4
  -6  10   8 4701.94 214.431   2
  -6  10   8 4953.71 218.499   3
  -6  10   8 4602.56 208.235   4
  -6  10   7 211.548 55.1284   2
  -6  10   7 278.598 65.4595   3
  -6  10   7 207.784 59.1245   4
  -6  10   6 557.918 75.4146   3
  -6  10   6 677.889 79.5466   2
  -6  10   6 662.831 75.7539   4
  -6  10   5 3376.17 161.259   2
  -6  10   5 3158.98 161.300   3
   6  10  -5 3046.75 100.175   3
  -6  10   5 3304.05 154.606   4
   6  10  -4 527.348 33.1211   3
  -6  10   4 676.022 78.8400   3
  -6  10   4 571.183 71.8989   2
  -6  10   4 481.530 64.1813   4
   6  10  -3 1509.68 43.3461   3
  -6  10   3 1641.78 104.545   2
  -6  10   3 1756.43 117.990   3
  -6  10   3 1758.06 105.656   4
  -6  10   2 2814.97 131.232   2
  -6  10   2 2874.08 146.373   3
  -6  10   1-22.9347 45.1394   3
  -6  10   1-45.8267 34.3142   2
  -6  10   0 10385.5 296.716   3
  -6  10   0 10642.7 262.127   2
  -6  10  -1-33.0841 41.9624   3
  -6  10  -1-18.0903 25.2151   2
  -6  10  -2 1349.57 100.540   3
   6  10   2 1091.92 96.4694   1
  -6  10  -2 1232.61 69.3238   2
  -6  10  -3 1275.73 98.1415   3
   6  10   3 1207.86 102.035   1
  -6  10  -3 1125.43 60.7393   2
   6  10   4 49.9179 47.9308   1
  -6  10  -4 45.8332 15.8649   2
  -6  10  -4 134.764 52.4870   3
   6  10   5 545.820 76.5625   1
   6  10   6 2335.06 142.311   1
   6  10   7 418.563 79.2140   1
   6  10   8 4611.40 209.261   1
   6  10   9 2097.34 142.173   1
   6  10  10 458.027 79.7787   1
   6  10  11 217.186 67.0363   1
   6  10  11 305.745 45.8892   4
   6  10  12 266.435 72.1028   1
   6  10  13 699.514 72.8187   2
   6  10  13 764.918 98.3020   1
   6  10  14 45.4468 56.1878   1
   6  10  14 91.4118 39.9973   2
   6  10  15 76.2255 56.6956   1
   6  10  15 78.3788 39.6078   2
   6  10  16 594.538 95.2916   1
   6  10  17 54.1062 56.3659   1
   6  10  18 347.207 79.5099   1
   6  10  19 244.945 72.8220   1
   6  10  20 42.6026 52.0271   1
  -6  11  19 287.852 91.7941   2
  -6  11  18-71.1077 70.2212   2
  -6  11  17 94.8908 81.8710   2
  -6  11  16 265.028 89.5225   2
  -6  11  16 240.273 83.6627   4
  -6  11  15 70.6055 69.8588   2
  -6  11  15 3.29420 66.6081   4
  -6  11  14 1136.63 132.919   2
  -6  11  14 1137.65 133.805   4
  -6  11  13 11.2712 65.0318   2
  -6  11  13 20.4305 56.7866   4
  -6  11  12 2444.91 173.749   2
  -6  11  12 2224.48 166.576   4
  -6  11  11 244.430 62.1637   2
  -6  11  11 238.718 69.6757   4
  -6  11  10 237.736 65.4302   2
  -6  11  10 297.014 77.0405   4
  -6  11   9 883.055 101.234   2
  -6  11   9 803.705 96.2636   4
  -6  11   8 59.1747 51.1938   2
  -6  11   8 135.927 60.0668   3
  -6  11   8 240.552 65.2953   4
  -6  11   7 261.678 64.1661   2
  -6  11   7 302.390 63.2166   3
  -6  11   7 247.633 60.3264   4
  -6  11   6 2327.43 141.118   2
  -6  11   6 2087.48 137.376   3
  -6  11   6 2255.34 136.312   4
  -6  11   5 1365.45 108.145   2
  -6  11   5 1433.72 111.569   3
  -6  11   5 1367.25 103.187   4
   6  11  -4 748.287 39.5494   3
  -6  11   4 761.369 83.3047   3
  -6  11   4 671.402 72.5986   2
  -6  11   4 767.178 75.3642   4
  -6  11   3 602.734 72.8007   3
  -6  11   3 654.865 67.7038   2
  -6  11   2 583.886 72.4457   3
  -6  11   2 624.634 64.8835   2
  -6  11   1 1159.68 81.1305   2
  -6  11   1 1079.18 91.8721   3
  -6  11   0 484.472 67.6834   3
  -6  11   0 559.860 55.7991   2
  -6  11  -1 3129.33 153.887   3
  -6  11  -1 2862.56 117.552   2
  -6  11  -2 1913.62 119.747   3
  -6  11  -2 1798.97 87.1048   2
  -6  11  -3 236.466 52.2361   3
  -6  11  -3 213.504 32.1544   2
  -6  11  -4 5901.81 217.083   3
   6  11   4 5564.13 216.817   1
  -6  11  -4 5874.63 142.131   2
  -6  11  -5 59.1014 13.4781   2
   6  11   5 119.076 59.5835   1
   6  11   6 2360.16 144.823   1
   6  11   7 5212.52 222.080   1
   6  11   8 132.465 62.7318   1
   6  11   9 5357.36 233.962   1
   6  11  10 768.382 94.8995   1
   6  11  11 91.5404 58.8228   1
   6  11  12 803.218 101.218   1
   6  11  13 96.3459 63.4520   1
   6  11  13 53.0503 41.4422   2
   6  11  14 450.221 85.8335   1
   6  11  14 415.001 61.8602   2
   6  11  15 514.050 88.6654   1
   6  11  15 552.584 69.3136   2
   6  11  16-49.4455 56.7173   1
   6  11  17 326.737 80.7994   1
   6  11  18 74.5479 64.2119   1
  -6  12  19 706.614 131.473   2
  -6  12  18 1972.11 191.720   2
  -6  12  17-37.6439 77.3193   2
  -6  12  17 115.787 73.3553   4
  -6  12  16 1764.84 173.516   2
  -6  12  16 1699.99 168.117   4
  -6  12  15 80.2535 64.8231   2
  -6  12  15 88.8819 65.4950   4
  -6  12  14 358.917 83.5647   2
  -6  12  14 270.362 75.2993   4
  -6  12  13 78.1453 60.7335   2
  -6  12  13 86.2576 58.6426   4
  -6  12  12 304.311 68.1380   2
  -6  12  12 484.471 91.7077   4
  -6  12  11 128.015 58.4233   2
  -6  12  11 116.914 63.6884   4
  -6  12  10 1078.13 114.246   2
  -6  12  10 1112.69 115.717   4
  -6  12   9 1013.61 115.552   2
  -6  12   9 977.791 114.228   4
  -6  12   8 7861.82 289.042   2
  -6  12   8 8105.47 299.642   3
  -6  12   8 8133.69 289.138   4
  -6  12   7-3.00884 43.7325   2
  -6  12   7 1.75470 43.9853   3
  -6  12   7 3.25874 43.9853   4
  -6  12   6 2514.13 150.914   2
  -6  12   6 2860.05 164.556   3
  -6  12   6 2743.65 153.998   4
  -6  12   5 17.8433 38.1955   2
  -6  12   5-12.8796 44.1377   3
  -6  12   5-23.6301 42.7815   4
  -6  12   4 61.4039 38.3226   2
  -6  12   4 87.3066 50.1485   3
  -6  12   3 733.192 88.2996   3
  -6  12   3 725.367 78.1226   2
  -6  12   2 7353.79 230.445   2
  -6  12   2 7121.21 252.475   3
  -6  12   1 2609.67 123.914   2
  -6  12   1 2354.43 139.324   3
  -6  12   0 11651.9 287.416   2
  -6  12   0 11263.9 326.037   3
  -6  12  -1 62.7470 42.3774   3
  -6  12  -1 72.6862 28.7201   2
  -6  12  -2 7714.32 258.852   3
  -6  12  -2 7873.86 202.951   2
  -6  12  -3 880.937 89.5974   3
  -6  12  -3 864.803 57.6609   2
  -6  12  -4 873.029 49.8091   2
  -6  12  -4 863.022 90.6768   3
  -6  12  -5 3206.68 89.3628   2
   6  12   7 4683.13 209.647   1
   6  12   8 4750.68 214.717   1
   6  12   9 510.405 82.9815   1
   6  12  10 770.799 97.1266   1
   6  12  11 366.660 74.9387   1
   6  12  12 83.0887 36.8975   4
   6  12  12 76.5908 56.6659   1
   6  12  13 325.049 72.0307   1
   6  12  13 373.042 62.1966   2
   6  12  14 316.270 76.6737   1
   6  12  14 559.229 69.9931   2
   6  12  15 669.558 100.976   1
   6  12  15 581.744 74.5211   2
  -6  13  18 156.869 94.2470   2
  -6  13  18 150.034 100.975   4
  -6  13  17-12.5051 64.6178   2
  -6  13  17 33.7178 81.6374   4
  -6  13  16-23.4643 65.3794   2
  -6  13  16 25.8825 59.8766   4
  -6  13  15 458.318 94.9449   2
  -6  13  15 414.126 98.2850   4
  -6  13  14 87.0714 62.7648   2
  -6  13  14 276.231 87.4141   4
  -6  13  13-62.0959 75.8321   2
  -6  13  13-87.6396 75.9745   4
  -6  13  12 210.650 73.1729   2
  -6  13  12 173.443 67.3821   4
  -6  13  11 1045.92 121.719   2
  -6  13  11 985.191 116.589   4
  -6  13  10 2.44061 52.0070   2
  -6  13  10 158.878 65.3929   4
  -6  13   9 8.73503 48.6880   2
  -6  13   9 56.0337 53.4553   4
  -6  13   8 341.792 72.1121   2
  -6  13   8 455.115 85.7651   3
  -6  13   8 471.189 81.0660   4
  -6  13   7 40.5944 54.2572   2
  -6  13   7 127.840 59.9889   3
  -6  13   7-46.0596 54.5623   4
  -6  13   6 327.328 64.6736   2
  -6  13   6 497.773 81.2685   3
  -6  13   6 401.613 66.7478   4
  -6  13   5 1413.67 109.590   2
  -6  13   5 1447.40 117.511   3
  -6  13   4-44.1310 42.2694   2
  -6  13   4-51.2626 51.9746   3
  -6  13   3 163.498 40.0308   2
  -6  13   3 184.832 56.1920   3
  -6  13   2 108.228 42.2601   3
  -6  13   2 49.9148 34.2158   2
  -6  13   1 1857.20 106.762   2
  -6  13   1 1664.46 121.667   3
  -6  13   0 0.26480 45.0705   3
  -6  13   0 74.2323 33.5386   2
  -6  13  -1 450.530 68.0405   3
  -6  13  -1 413.019 51.1490   2
  -6  13  -2 1660.88 85.4963   2
  -6  13  -2 1549.65 117.446   3
  -6  13  -3 1359.03 110.524   3
  -6  13  -3 1372.58 74.5637   2
  -6  13  -4 459.768 72.6627   3
  -6  13  -4 549.045 43.1538   2
  -6  13  -5 2198.33 76.6222   2
   6  13  13 17.3821 38.2249   2
   6  13  14 326.900 61.1857   2
   6  13  15 277.654 58.5499   2
   6  13  16 0.37332 40.4892   2
  -6  14  18 1507.09 169.435   2
  -6  14  18 1104.58 152.617   4
  -6  14  17 738.380 123.769   2
  -6  14  17 687.639 128.383   4
  -6  14  16 1550.34 161.601   2
  -6  14  16 1436.02 161.991   4
  -6  14  15 33.7630 70.3012   2
  -6  14  15 212.017 77.8548   4
  -6  14  14 409.768 99.1466   2
  -6  14  14 423.440 92.5275   4
  -6  14  13-116.373 80.1900   2
  -6  14  13 6.27375 53.0506   4
  -6  14  12 137.636 67.9512   2
  -6  14  12 195.126 69.2918   4
  -6  14  11 96.4041 60.7859   2
  -6  14  11 153.690 66.6422   4
  -6  14  10 4016.94 216.836   2
  -6  14  10 3967.11 215.727   4
  -6  14   9 1175.68 116.908   2
  -6  14   9 1145.54 122.360   3
  -6  14   9 1134.33 115.180   4
  -6  14   8 4046.71 207.261   2
  -6  14   8 4086.72 214.486   3
  -6  14   8 4394.75 212.544   4
  -6  14   7 419.990 73.5493   2
  -6  14   7 707.528 96.8247   3
  -6  14   7 484.846 80.7581   4
  -6  14   6 3094.45 168.066   2
  -6  14   6 3041.91 177.096   3
  -6  14   5 74.0092 44.3155   2
  -6  14   5 86.0457 46.3319   3
  -6  14   4 731.961 79.5550   2
  -6  14   4 907.851 100.886   3
  -6  14   3-41.6243 41.3509   2
  -6  14   3 19.6840 46.6818   3
  -6  14   2 3502.85 180.810   3
  -6  14   2 3704.21 160.183   2
  -6  14   1 1012.77 97.0630   3
  -6  14   1 998.347 82.8753   2
  -6  14   0 6455.39 245.976   3
  -6  14   0 6653.29 207.515   2
  -6  14  -1 1094.83 100.409   3
  -6  14  -1 1057.15 75.5582   2
  -6  14  -2 8165.05 276.449   3
  -6  14  -2 7837.73 213.620   2
  -6  14  -3 23.7123 43.4625   3
  -6  14  -3 18.3788 24.3183   2
  -6  14  -4 368.819 70.7852   3
  -6  14  -4 301.351 35.6901   2
  -6  14  -5 57.3968 54.9237   3
   6  14  13 199.465 52.9019   2
   6  14  14 924.029 91.4878   2
   6  14  15-44.6685 41.8664   2
   6  14  16 1049.07 100.452   2
  -6  15  18 283.448 102.986   2
  -6  15  18 280.255 94.0060   4
  -6  15  17 85.6105 70.5714   2
  -6  15  17 87.8679 85.6288   4
  -6  15  16-100.854 82.5491   2
  -6  15  16 110.661 84.8735   4
  -6  15  15 195.182 83.2834   2
  -6  15  15 301.246 100.723   4
  -6  15  14 270.576 87.4769   2
  -6  15  14 324.932 90.1568   4
  -6  15  13 7.72291 73.1827   2
  -6  15  13 65.6509 67.5654   4
  -6  15  12 1329.29 139.692   2
  -6  15  12 1645.05 154.433   4
  -6  15  11 417.361 87.8263   2
  -6  15  11 544.455 95.5645   4
  -6  15  10 630.412 94.5003   2
  -6  15  10 533.798 95.1008   4
  -6  15   9 1010.32 113.118   2
  -6  15   9 1182.17 130.225   3
  -6  15   9 1049.90 117.613   4
  -6  15   8-64.0239 57.1289   2
  -6  15   8 39.5570 63.7664   3
  -6  15   8 40.4372 52.5502   4
  -6  15   7 439.900 79.2680   2
  -6  15   7 415.237 76.2165   3
  -6  15   6 458.652 77.8665   2
  -6  15   6 412.045 83.9732   3
  -6  15   5-16.4405 44.4623   2
  -6  15   5 14.0654 52.2476   3
  -6  15   4 4220.48 209.995   3
  -6  15   4 4629.23 197.376   2
  -6  15   3 458.238 66.7691   2
  -6  15   3 406.312 75.9598   3
  -6  15   2 424.683 59.1649   2
  -6  15   2 348.353 68.9474   3
  -6  15   1 512.278 64.1215   2
  -6  15   1 454.502 73.5747   3
  -6  15   0 55.5619 31.9575   2
  -6  15   0-2.88722 50.8115   3
  -6  15  -1-9.55670 47.4609   3
  -6  15  -1-41.3931 28.6260   2
  -6  15  -2 252.625 63.8393   3
  -6  15  -2 188.481 37.6360   2
  -6  15  -3 330.695 69.8183   3
  -6  15  -3 347.007 43.5346   2
  -6  15  -4 162.863 63.2066   3
  -6  15  -4 7.79097 19.9009   2
  -6  15  -5 315.293 71.7973   3
   6  15  14 364.056 67.2555   2
   6  15  15 77.3448 47.6836   2
   6  15  16 90.1638 52.0779   2
  -6  16  17 155.103 77.7438   2
  -6  16  17 136.010 75.9380   4
  -6  16  16 1048.58 145.867   2
  -6  16  16 1065.35 143.570   4
  -6  16  15 230.398 88.5968   2
  -6  16  15 295.823 94.7183   4
  -6  16  14 91.2217 67.8300   2
  -6  16  14 296.569 89.6668   4
  -6  16  13 169.774 82.9714   4
  -6  16  13 56.3490 63.8415   2
  -6  16  12 111.699 63.6304   2
  -6  16  12 120.354 69.5203   4
  -6  16  11 589.438 98.8959   2
  -6  16  11 611.830 102.407   4
  -6  16  10 3392.83 204.639   2
  -6  16  10 3320.55 201.548   4
  -6  16   9 24.4732 58.7597   2
  -6  16   9 83.1589 54.4925   3
  -6  16   9 101.782 55.8170   4
  -6  16   8 3488.33 197.120   2
  -6  16   8 3912.21 217.230   3
  -6  16   8 3825.19 205.996   4
  -6  16   7 626.618 90.2054   2
  -6  16   7 429.459 82.0437   3
  -6  16   6 322.196 69.2085   2
  -6  16   6 251.415 67.0328   3
  -6  16   5 894.408 103.364   3
  -6  16   5 1124.84 102.909   2
  -6  16   4 2860.79 176.110   3
  -6  16   4 3081.98 163.490   2
  -6  16   3 26.2849 36.1367   2
  -6  16   3-29.2961 49.8911   3
  -6  16   2 735.922 77.7952   2
  -6  16   2 528.396 79.7458   3
  -6  16   1 225.697 49.3895   2
  -6  16   1 145.428 50.6314   3
  -6  16   0 3543.50 185.966   3
  -6  16   0 3461.33 151.177   2
  -6  16  -1 286.461 45.5744   2
  -6  16  -1 257.606 62.3096   3
  -6  16  -2 496.421 54.3951   2
  -6  16  -2 446.422 79.0143   3
  -6  16  -3 1960.25 141.107   3
  -6  16  -3 1835.29 94.8030   2
  -6  16  -4 124.550 64.2632   3
  -6  16  -4-3.63817 21.1905   2
  -6  16  -5 385.400 78.9613   3
   6  16  14 684.600 88.2817   2
   6  16  15 69.7082 50.8860   2
   6  16  16 826.431 93.5101   2
  -6  17  17 60.3640 75.3231   2
  -6  17  17 134.494 79.8389   4
  -6  17  16-15.2864 77.9026   2
  -6  17  16-19.1330 63.4433   4
  -6  17  15 31.1734 74.9823   2
  -6  17  15 52.7820 67.8848   4
  -6  17  14 919.684 131.201   2
  -6  17  14 883.095 129.014   4
  -6  17  13-27.4508 63.1590   2
  -6  17  13 103.761 71.7551   4
  -6  17  12 1408.79 142.634   2
  -6  17  12 1256.49 140.179   4
  -6  17  11 51.4319 62.1255   2
  -6  17  11 52.6204 54.8312   4
  -6  17  10 965.929 119.868   2
  -6  17  10 947.984 116.533   4
  -6  17   9 253.643 73.8322   2
  -6  17   9 327.108 88.9806   3
  -6  17   9 219.315 63.0952   4
  -6  17   8-42.5565 56.3795   2
  -6  17   8 42.8241 68.7444   3
  -6  17   7 512.054 82.2959   2
  -6  17   7 499.879 85.1169   3
  -6  17   6 3265.85 194.546   3
  -6  17   6 3395.93 182.963   2
  -6  17   5 256.224 61.8721   2
  -6  17   5 138.820 57.8949   3
  -6  17   4 2185.88 157.322   3
  -6  17   4 2361.15 145.302   2
  -6  17   3 21.5503 37.1743   2
  -6  17   3-45.5671 57.1612   3
  -6  17   2 191.537 50.2895   2
  -6  17   2 162.079 50.7966   3
  -6  17   1 33.8226 33.2651   2
  -6  17   1-39.7647 62.7211   3
  -6  17   0 326.782 53.9949   2
  -6  17   0 235.616 61.1541   3
  -6  17  -1 505.557 57.5813   2
  -6  17  -1 516.361 81.0513   3
  -6  17  -2 1203.07 83.3905   2
  -6  17  -2 1177.67 115.698   3
  -6  17  -3 401.793 51.1217   2
  -6  17  -3 326.941 75.1717   3
  -6  17  -4 2875.48 175.984   3
  -6  17  -5 187.372 69.7020   3
  -6  17  -6 682.394 95.5892   3
   6  17  14 450.312 74.8530   2
   6  17  15 190.859 61.5119   2
   6  17  16 108.887 52.9987   2
   6  17  17 248.376 66.6457   2
  -6  18  16 24.9803 74.5087   2
  -6  18  16 0.37677 64.4040   4
  -6  18  15 191.942 89.5516   2
  -6  18  15 148.471 74.0401   4
  -6  18  14 125.228 76.8786   2
  -6  18  14-18.1659 67.8257   4
  -6  18  13 200.926 77.1144   2
  -6  18  13 116.287 72.5285   4
  -6  18  12 42.9719 63.1883   2
  -6  18  12 240.557 78.9896   4
  -6  18  11 1.09552 65.9231   2
  -6  18  11-17.8264 60.2213   4
  -6  18  10 1020.21 121.879   2
  -6  18  10 1009.12 121.213   4
  -6  18   9 181.153 64.5967   2
  -6  18   9 325.653 78.6765   3
  -6  18   9 183.734 68.8819   4
  -6  18   8 1234.89 122.890   2
  -6  18   8 1171.55 127.148   3
  -6  18   7 118.540 59.9466   2
  -6  18   7 19.2212 60.7705   3
  -6  18   6 64.4499 47.1099   2
  -6  18   6 68.9326 59.7735   3
  -6  18   5 955.531 102.499   2
  -6  18   5 1031.74 115.281   3
  -6  18   4 2.21784 43.9023   2
  -6  18   4-102.671 62.4722   3
  -6  18   3 1764.75 148.577   3
  -6  18   3 2049.13 132.750   2
  -6  18   2 2148.50 154.136   3
  -6  18   2 2308.00 135.295   2
  -6  18   1 113.478 46.4496   2
  -6  18   1 60.1114 52.0796   3
  -6  18   0 727.118 75.2497   2
  -6  18   0 535.098 88.0533   3
  -6  18  -1 14.6891 30.8575   2
  -6  18  -1-88.4094 63.7008   3
  -6  18  -2 125.300 39.2977   2
  -6  18  -2 69.2753 49.1257   3
  -6  18  -3 1720.73 140.496   3
  -6  18  -3 1744.86 98.1076   2
  -6  18  -4 1060.29 111.960   3
  -6  18  -5 421.840 89.3092   3
  -6  18  -6 439.825 87.9879   3
   6  18  14 219.501 63.4825   2
   6  18  15 60.8759 52.3325   2
   6  18  16 183.050 63.3201   2
   6  18  17-49.2368 54.5740   2
  -6  19  16 40.9151 65.6468   2
  -6  19  16-27.5162 65.1893   4
  -6  19  15 347.097 103.128   2
  -6  19  15 344.769 92.7456   4
  -6  19  14 1289.94 152.403   2
  -6  19  14 1110.96 142.783   4
  -6  19  13 69.3345 62.6336   2
  -6  19  13 214.802 82.8443   4
  -6  19  12 2983.28 211.449   2
  -6  19  12 2947.78 209.822   4
  -6  19  11 10.4086 64.8226   2
  -6  19  11 97.0853 64.0309   4
  -6  19  10 1547.92 156.176   3
  -6  19  10 1454.46 145.243   4
  -6  19  10 1534.89 146.994   2
  -6  19   9-19.0067 55.6724   2
  -6  19   9 60.6947 66.8207   3
  -6  19   8 19.9946 53.8700   2
  -6  19   8 45.4645 63.6732   3
  -6  19   7 315.059 73.2412   2
  -6  19   7 286.380 79.7617   3
  -6  19   6 2985.48 194.510   3
  -6  19   6 2652.09 170.090   2
  -6  19   5 583.193 84.9420   2
  -6  19   5 442.774 82.0928   3
  -6  19   4 675.690 88.0096   2
  -6  19   4 628.275 98.2960   3
  -6  19   3 148.279 55.5353   2
  -6  19   3 252.484 78.7083   3
  -6  19   2 4146.61 218.701   3
  -6  19   2 4104.30 186.738   2
  -6  19   1 288.843 57.9888   2
  -6  19   1 227.450 69.5510   3
  -6  19   0 451.770 62.9122   2
  -6  19   0 463.979 79.2496   3
  -6  19  -1 1099.19 113.756   3
  -6  19  -1 1295.14 95.2160   2
  -6  19  -2 987.222 112.086   3
  -6  19  -2 985.351 78.9061   2
  -6  19  -3 68.2332 47.8609   3
  -6  19  -4 3553.54 201.252   3
  -6  19  -5 745.003 102.877   3
  -6  19  -6 2800.99 180.697   3
  -6  19  -7-8.00804 59.9196   3
   6  19  14 639.854 91.4765   2
   6  19  15 110.843 57.6918   2
   6  19  16-10.7817 50.6664   2
   6  19  17-13.4441 54.6433   2
  -6  20  15 33.5375 65.2044   2
  -6  20  15-47.0846 77.4948   4
  -6  20  14-2.33468 74.1946   2
  -6  20  14 69.2845 77.4726   4
  -6  20  13 407.950 96.8064   2
  -6  20  13 238.121 92.4331   4
  -6  20  12-4.85920 55.8031   2
  -6  20  12 80.2082 63.8186   4
  -6  20  11 58.9708 63.0783   2
  -6  20  11 75.1571 59.2433   4
  -6  20  10 348.515 92.0484   2
  -6  20  10 301.513 88.8466   3
  -6  20  10 47.6795 52.5458   4
  -6  20   9 11.4984 61.7066   2
  -6  20   9 19.7534 70.1278   3
  -6  20   8 36.6625 63.4084   2
  -6  20   8-34.0138 68.7445   3
  -6  20   7 69.5788 53.4635   2
  -6  20   7 12.5612 62.1840   3
  -6  20   6 203.316 65.1524   2
  -6  20   6 74.4694 63.1798   3
  -6  20   5 546.861 85.1250   2
  -6  20   5 597.167 98.6683   3
  -6  20   4 11.4284 53.8162   2
  -6  20   4-37.5050 53.8637   3
  -6  20   3 1914.57 156.231   3
  -6  20   3 1835.42 131.935   2
  -6  20   2 21.2424 43.8218   2
  -6  20   2-120.018 70.6876   3
  -6  20   1 401.257 67.1205   2
  -6  20   1 282.476 76.3335   3
  -6  20   0 62.9314 41.6165   2
  -6  20   0 19.7266 59.1695   3
  -6  20  -1 372.878 60.2596   2
  -6  20  -1 321.899 78.3486   3
  -6  20  -2 325.820 51.8556   2
  -6  20  -2 178.019 65.1578   3
  -6  20  -3-26.5153 56.9139   3
  -6  20  -4 835.566 108.242   3
  -6  20  -5 1934.74 157.834   3
  -6  20  -6 281.070 77.5302   3
  -6  20  -7 144.689 74.2452   3
   6  20  14 260.474 74.6695   2
   6  20  15 213.555 73.9569   2
   6  20  16-12.3955 47.9472   2
   6  20  17-29.7325 57.0553   2
  -6  21  14 149.100 69.2318   2
  -6  21  14 275.861 99.1864   4
  -6  21  13 160.828 85.6678   2
  -6  21  13 223.668 87.2902   4
  -6  21  12 984.405 132.885   2
  -6  21  12 1015.83 140.015   4
  -6  21  11 617.695 106.368   2
  -6  21  11 584.339 108.311   4
  -6  21  10 328.695 85.6685   2
  -6  21  10 375.453 92.4604   3
  -6  21  10 291.336 83.9298   4
  -6  21   9 79.7250 63.1435   2
  -6  21   9 61.5162 60.4033   3
  -6  21   8 110.959 65.1525   2
  -6  21   8 48.6516 61.4096   3
  -6  21   7 511.064 89.2694   2
  -6  21   7 517.319 99.1679   3
  -6  21   6 1966.37 165.034   3
  -6  21   6 1726.04 141.644   2
  -6  21   5 166.767 55.4368   2
  -6  21   5 239.604 75.3534   3
  -6  21   4 3076.17 203.647   3
  -6  21   4 3008.57 176.566   2
  -6  21   3 187.216 57.8340   2
  -6  21   3 286.024 75.0953   3
  -6  21   2 1692.66 148.080   3
  -6  21   2 1795.09 129.038   2
  -6  21   1 108.965 47.0513   2
  -6  21   1 107.476 56.1942   3
  -6  21   0 167.825 48.8277   2
  -6  21   0-50.3790 60.5605   3
  -6  21  -1 497.993 88.4292   3
  -6  21  -1 480.532 65.5718   2
  -6  21  -2 1491.55 139.009   3
  -6  21  -3 250.969 78.3122   3
  -6  21  -4 2545.63 179.168   3
  -6  21  -5 203.155 76.4564   3
  -6  21  -6 857.783 109.049   3
  -6  21  -7 930.354 117.344   3
  -6  21  -8 118.976 69.5827   3
   6  21  14 537.257 102.416   2
   6  21  15 499.811 93.6513   2
   6  21  16 16.7237 56.1341   2
   6  21  17 5.45820 58.6589   2
  -6  22  14 203.070 88.0929   2
  -6  22  14 165.384 92.0255   4
  -6  22  13-12.1656 66.2483   2
  -6  22  13 43.4769 72.7367   4
  -6  22  12 78.1379 76.1042   2
  -6  22  12-92.0784 80.1764   4
  -6  22  11 267.008 86.6023   2
  -6  22  11 268.388 90.9305   4
  -6  22  10 371.690 91.8453   2
  -6  22  10 320.431 88.9873   3
  -6  22   9 121.994 64.8686   2
  -6  22   9 142.547 71.2741   3
  -6  22   8 582.942 96.6291   2
  -6  22   8 517.749 101.830   3
  -6  22   7 0.06636 61.1495   2
  -6  22   7-19.5736 65.5644   3
  -6  22   6 673.188 98.7627   2
  -6  22   6 679.138 108.599   3
  -6  22   5 532.440 85.3822   2
  -6  22   5 470.353 97.3745   3
  -6  22   4-7.16289 49.9933   2
  -6  22   4 70.9135 72.7456   3
  -6  22   3 788.749 94.5653   2
  -6  22   3 936.100 119.437   3
  -6  22   2 297.459 62.3699   2
  -6  22   2 402.131 92.2650   3
  -6  22   1 984.924 120.634   3
  -6  22   1 1225.52 106.082   2
  -6  22   0-39.9589 71.5833   3
  -6  22   0 177.034 50.9883   2
  -6  22  -1-68.8585 71.9975   3
  -6  22  -1 4.44403 36.3455   2
  -6  22  -2 827.901 107.967   3
  -6  22  -3 621.802 103.089   3
  -6  22  -4 147.322 64.3836   3
  -6  22  -5 801.480 114.688   3
  -6  22  -6 12.4867 54.5433   3
  -6  22  -7 819.090 109.703   3
  -6  22  -8 107.145 71.1722   3
   6  22  14 263.674 74.5920   2
   6  22  15 188.883 74.1236   2
   6  22  16 308.773 84.8818   2
  -6  23  13 52.1612 70.5180   2
  -6  23  13 119.484 78.7082   4
  -6  23  12 960.482 135.927   2
  -6  23  12 904.454 130.948   4
  -6  23  11 36.8969 62.8700   2
  -6  23  11 13.7482 62.6378   4
  -6  23  10 146.364 77.2342   2
  -6  23  10 121.536 71.5699   3
  -6  23   9 171.977 79.1338   2
  -6  23   9 103.303 66.2419   3
  -6  23   8 677.891 104.479   2
  -6  23   8 519.597 102.052   3
  -6  23   7 33.1631 56.9155   2
  -6  23   7-6.03639 65.2779   3
  -6  23   6 1132.80 124.065   2
  -6  23   6 1597.98 156.002   3
  -6  23   5 117.910 58.9128   2
  -6  23   5 96.2995 73.4512   3
  -6  23   4 2034.49 172.427   3
  -6  23   4 1955.00 148.497   2
  -6  23   3 702.376 91.4213   2
  -6  23   3 614.496 109.393   3
  -6  23   2 776.314 92.8652   2
  -6  23   2 809.672 111.809   3
  -6  23   1 4.17472 40.6153   2
  -6  23   1-81.6317 60.5963   3
  -6  23   0-54.0096 70.0071   3
  -6  23   0 23.9356 39.7490   2
  -6  23  -1 51.2860 67.3105   3
  -6  23  -2 1502.16 143.520   3
  -6  23  -3 637.627 105.614   3
  -6  23  -4 957.726 124.681   3
  -6  23  -5 217.514 85.0112   3
  -6  23  -6 131.234 69.5816   3
  -6  23  -7 96.3115 60.9036   3
  -6  23  -8 228.999 75.4850   3
  -6  23  -9 323.388 82.7352   3
   6  23  14 396.430 87.6431   2
   6  23  15 57.9000 63.9504   2
  -6  24  12-34.2271 75.8317   2
  -6  24  12 145.358 85.1299   4
  -6  24  11 261.639 90.0085   2
  -6  24  11 221.835 86.3399   4
  -6  24  10 122.199 68.9094   2
  -6  24  10 247.527 91.7228   3
  -6  24   9 714.709 114.329   2
  -6  24   9 691.900 116.437   3
  -6  24   8 1290.48 141.248   2
  -6  24   8 1198.38 145.779   3
  -6  24   7 357.249 83.8801   2
  -6  24   7 267.957 85.4465   3
  -6  24   6 542.348 97.4931   2
  -6  24   6 607.889 111.974   3
  -6  24   5 68.1044 64.3297   2
  -6  24   5 91.0428 70.1346   3
  -6  24   4 28.5729 50.0915   2
  -6  24   4-1.18094 55.1774   3
  -6  24   3 1104.61 132.024   3
  -6  24   3 1302.39 121.747   2
  -6  24   2 360.553 70.2411   2
  -6  24   2 472.632 97.0906   3
  -6  24   1 379.737 92.9484   3
  -6  24   1 453.171 74.2618   2
  -6  24   0 1867.31 163.316   3
  -6  24   0 1714.92 125.016   2
  -6  24  -1 11.2961 65.3004   3
  -6  24  -2 894.757 124.572   3
  -6  24  -3 361.666 84.8657   3
  -6  24  -4 43.2778 65.2914   3
  -6  24  -5 579.345 107.384   3
  -6  24  -6 883.842 121.067   3
  -6  24  -7 516.436 97.0976   3
  -6  24  -8 781.009 112.124   3
  -6  24  -9 226.284 90.4816   3
  -6  24 -10 243.721 92.0266   3
  -6  25  12 29.2231 63.8847   2
  -6  25  11 191.442 85.0843   2
  -6  25  10 101.104 73.5741   2
  -6  25  10 32.0985 87.7088   3
  -6  25   9 12.4787 64.3426   2
  -6  25   9 78.1511 66.6352   3
  -6  25   8 421.493 89.1526   2
  -6  25   8 408.137 98.7267   3
  -6  25   7 47.4377 62.8655   2
  -6  25   7 215.401 93.8057   3
  -6  25   6 579.387 97.1562   2
  -6  25   6 613.896 112.561   3
  -6  25   5 154.008 73.5664   2
  -6  25   5 76.0179 58.7386   3
  -6  25   4 655.466 95.2833   2
  -6  25   4 616.552 116.313   3
  -6  25   3 544.956 88.5397   2
  -6  25   3 515.920 108.744   3
  -6  25   2 54.9072 68.0573   3
  -6  25   2 89.8784 56.2375   2
  -6  25   1 195.717 78.5109   3
  -6  25   1 213.808 59.0450   2
  -6  25   0 19.1776 71.9309   3
  -6  25  -1 98.2283 60.2144   3
  -6  25  -2 636.257 108.046   3
  -6  25  -3-3.38688 50.7372   3
  -6  25  -4 239.908 89.2400   3
  -6  25  -5-31.0179 64.8214   3
  -6  25  -6 171.763 85.1181   3
  -6  25  -7 192.126 80.0191   3
  -6  25  -8 49.5499 76.6282   3
  -6  25  -9 125.517 83.6322   3
  -6  26  11 328.241 97.5825   2
  -6  26  10 634.930 115.587   2
  -6  26   9 115.922 70.3639   2
  -6  26   8 595.089 107.539   2
  -6  26   8 562.881 117.811   3
  -6  26   7 591.687 107.175   2
  -6  26   7 464.858 106.780   3
  -6  26   6 463.146 94.2687   2
  -6  26   6 393.185 95.8963   3
  -6  26   5 9.70250 57.1518   2
  -6  26   5-2.42153 71.2479   3
  -6  26   4 96.4074 59.8618   2
  -6  26   4 65.9048 77.3325   3
  -6  26   3 396.664 77.0386   2
  -6  26   3 314.673 81.7169   3
  -6  26   2 662.763 119.584   3
  -6  26   2 550.118 87.4479   2
  -6  26   1 806.637 118.690   3
  -6  26   0 970.387 133.964   3
  -6  26  -1 129.049 74.7292   3
  -6  26  -2 410.464 94.7877   3
  -6  26  -3 27.1358 57.5867   3
  -6  26  -4 119.984 79.8575   3
  -6  26  -5 419.364 99.2635   3
  -6  26  -6 545.583 105.856   3
  -6  26  -7 28.1277 77.3829   3
  -6  26  -8 333.997 97.3351   3
  -6  27  10 117.367 72.7623   2
  -6  27   9 40.3106 70.4833   2
  -6  27   8-37.1723 72.0793   2
  -6  27   7-2.67904 58.7131   2
  -6  27   6 288.829 79.7819   2
  -6  27   6 301.169 89.8928   3
  -6  27   5 63.6379 58.2343   2
  -6  27   5 49.0663 70.5318   3
  -6  27   4-43.9447 55.2966   2
  -6  27   4-30.9672 68.7593   3
  -6  27   3 9.59538 51.2299   2
  -6  27   3 97.5745 77.9147   3
  -6  27   2 101.382 67.7722   3
  -6  27   2 63.7603 51.0621   2
  -6  27   1 129.300 79.0119   3
  -6  27   0-72.5936 65.2093   3
  -6  27  -1 128.771 75.2097   3
  -6  27  -2-93.3656 72.1158   3
  -6  27  -3 70.8570 67.3506   3
  -6  27  -4-55.2855 81.1529   3
  -6  27  -5 7.96008 76.2022   3
  -6  27  -6-1.19500 72.4039   3
  -6  28   9 262.170 86.8682   2
  -6  28   8 434.191 99.5075   2
  -6  28   7 101.210 65.4495   2
  -6  28   6 54.0611 59.2901   2
  -6  28   5 303.902 83.3135   2
  -6  28   4-7.36074 53.9272   2
  -6  28   3 201.580 69.2511   2
  -6  28   3 42.1322 65.2254   3
  -6  28   2 303.227 100.238   3
  -6  28   1 561.061 107.066   3
  -6  28   0 1038.45 140.712   3
  -6  28  -1 106.288 70.3955   3
  -6  28  -2 485.797 98.5290   3
  -6  28  -3-55.2857 84.3375   3
  -6  29   8 78.4506 69.1175   2
  -6  29   7 2.12294 63.7519   2
  -6  29   6 48.9372 61.1244   2
  -6  29   5 14.0454 62.1049   2
  -6  29   4 360.839 84.6053   2
  -6  30   7 208.312 79.1632   2
  -6  30   6-30.2191 61.6286   2
  -6  30   5-17.4237 59.7507   2
   7   0  -9-46.3307 26.2246   1
   7   0  -8 41.6353 26.5666   1
   7   0  -7 852.372 68.3828   1
   7   0  -6 1963.18 101.772   1
   7   0  -5 28.2380 34.6151   1
   7   0  -4 11.8102 33.7782   1
   7   0  -3-58.6136 44.4162   1
  -7   0   2 1531.19 82.0091   3
   7   0  -2 1441.00 98.8707   1
  -7   0   1-39.5596 25.9833   3
   7   0  -1-39.7807 40.8975   1
  -7   0   0 10360.9 239.290   3
   7   0   0 10407.7 300.287   1
  -7   0  -1-15.8397 24.4882   3
   7   0   1-33.4126 48.2012   1
  -7   0  -2 11663.3 257.863   3
   7   0   2 12006.6 337.788   1
  -7   0  -3-19.3011 24.5936   3
   7   0   3-1.71874 22.9902   2
  -7   0  -4 25.1033 26.4299   3
   7   0   4-0.52387 19.0007   2
   7   0   5 20.0484 18.0908   2
   7   0   6 504.291 42.7460   2
   7   0   8 1078.58 111.358   1
   7   0   9 87.5552 64.1571   1
   7   0  10 507.339 87.0516   1
   7   0  11-23.2712 63.2904   1
   7   0  12 342.933 77.2919   1
   7   0  13-112.168 75.1758   1
   7   0  14-64.1275 73.2509   1
   7   0  15-80.6661 76.4053   1
   7   0  16 475.865 97.5985   1
   7   0  17 28.9435 66.4245   1
   7   0  18 518.400 98.2352   1
   7   0  19-69.9583 61.0818   1
   7   0  20 743.353 118.828   1
   7   0  21 409.452 95.8445   1
   7   0  22-80.2710 73.6624   1
   7  -1  -9 9156.74 210.543   1
   7  -1  -8 212.848 38.1323   1
   7   1  -8 255.904 37.8547   1
   7   1  -7 6418.90 185.569   1
   7  -1  -7 6260.65 183.590   1
   7  -1  -6 316.563 45.4782   1
   7   1  -6 371.166 52.0943   1
   7   1  -5 36.5433 33.1608   1
   7  -1  -5-2.82208 32.1311   1
   7   1  -4-1.10031 31.4496   1
   7  -1  -4-3.51989 39.2427   1
   7   1  -3 2264.87 95.2998   3
  -7   1   3 2372.17 108.862   3
   7  -1  -3 2276.83 119.700   1
   7   1  -3 2381.56 121.892   1
  -7   1   2 861.377 64.8099   3
   7  -1  -2 939.284 83.1610   1
   7   1  -2 906.217 79.9603   1
   7   1  -2 1019.56 66.8744   4
   7   1  -1 20886.8 466.880   1
  -7   1   1 21285.1 412.255   3
  -7  -1   1 21321.3 394.560   3
   7   1  -1 20385.1 391.372   4
   7   1   0 523.376 69.6829   1
  -7   1   0 463.502 46.4372   3
  -7  -1   0 499.308 42.6720   3
  -7   1  -1 14618.7 310.415   3
  -7  -1  -1 14588.0 292.645   3
   7   1   1 14703.7 378.073   1
  -7   1  -2 1271.51 73.1685   3
  -7  -1  -2 1229.97 64.8515   3
   7  -1   2 1081.90 71.3715   2
   7   1   2 1289.07 105.390   1
  -7   1  -3 3713.72 129.584   3
  -7  -1  -3 3695.41 119.315   3
   7  -1   3 3641.58 128.793   2
   7   1   3 3476.47 173.115   1
  -7   1  -4 244.458 38.0393   3
   7   1   4 265.812 37.5814   2
  -7  -1  -4 252.451 34.9005   3
   7   1   4 229.160 54.4715   1
   7  -1   4 245.794 32.6337   2
   7  -1   5 861.936 53.0660   2
   7   1   5 734.732 86.4598   1
   7   1   5 986.792 64.1800   2
   7   1   6-96.9451 65.9084   1
   7  -1   6 8.91045 14.2801   2
   7   1   7 5073.72 223.546   1
   7   1   8-25.6661 57.2792   1
   7   1   9 8341.99 307.078   1
   7   1  10 170.981 69.0513   1
   7   1  11 137.848 58.7900   1
   7   1  12 278.872 73.2834   1
   7  -1  12 236.903 72.6324   1
   7   1  13 548.088 89.4239   1
   7  -1  13 476.607 85.7340   1
   7  -1  14-52.5730 64.4429   1
   7   1  14-19.6497 68.2436   1
   7  -1  15 1391.42 140.654   1
   7   1  15 1595.13 151.619   1
   7  -1  16 133.794 69.9828   1
   7   1  16 24.0837 69.7386   1
   7  -1  17 859.781 124.046   1
   7   1  17 1295.85 136.029   1
   7   1  18-10.1010 53.4107   1
   7  -1  18-28.7597 64.1825   1
   7   1  19 185.863 76.7477   1
   7  -1  19-23.3352 66.5290   1
   7  -1  20-9.93302 67.0128   1
   7   1  20 64.5369 72.6129   1
   7  -1  21-22.4899 59.6834   1
   7   1  21-0.08269 57.6006   1
   7  -1  22-17.5966 68.4587   1
   7   1  22-92.0831 76.6739   1
  -7   2  17 358.559 107.786   2
  -7   2  16 140.530 73.8727   2
  -7   2  15 119.800 77.4232   2
  -7   2  14 289.292 90.6360   2
  -7   2  13 1552.09 149.056   2
  -7   2  12 118.137 69.7884   2
  -7   2  11 2646.27 179.993   2
  -7   2  10 1666.98 140.194   2
   7  -2  -9 2344.29 93.2717   1
  -7   2   9 2611.98 166.547   2
  -7   2   8 1061.24 110.623   2
   7  -2  -8 867.244 62.8753   1
   7   2  -7 1097.44 71.6796   1
   7  -2  -7 952.383 68.2725   1
   7  -2  -6 374.292 47.7342   1
   7   2  -6 371.408 47.8867   1
   7   2  -5 790.909 69.8761   1
   7  -2  -5 709.116 64.7287   1
   7   2  -4 422.001 42.6407   3
   7   2  -4 520.862 61.0972   1
  -7   2   4 517.276 56.4589   3
   7  -2  -4 475.256 56.4513   1
   7   2  -3 1332.73 69.1762   3
  -7   2   3 1344.66 86.6537   3
   7   2  -3 1468.55 95.7489   1
  -7   2   2 2474.49 113.991   3
   7   2  -2 2655.05 134.516   1
   7   2  -1-3.95749 41.7547   1
  -7   2   1-7.75877 24.9546   3
  -7  -2   1-3.05175 20.9288   3
   7   2  -1 2.19054 19.7766   4
   7   2   0 7300.95 241.129   1
  -7   2   0 7184.66 201.045   3
  -7  -2   0 7193.91 171.306   3
   7   2   0 6872.14 173.003   4
  -7  -2  -1 462.914 37.9313   3
  -7   2  -1 385.817 45.6165   3
   7   2   1 472.733 71.3067   1
   7   2   1 422.096 34.1212   4
  -7   2  -2 4376.88 148.342   3
   7  -2   2 4317.51 141.669   2
  -7  -2  -2 4437.42 125.140   3
   7   2   2 4419.19 192.168   1
   7   2   3 670.711 81.8065   1
  -7   2  -3 862.939 65.1931   3
  -7  -2  -3 818.887 50.0151   3
   7  -2   3 807.875 55.7652   2
  -7   2  -4 67.3582 28.2314   3
  -7  -2  -4 71.4040 23.0448   3
   7   2   4 71.4577 46.3606   1
   7  -2   4-2.27331 18.7076   2
   7  -2   5 1456.77 62.9860   2
   7   2   5 1339.29 112.050   1
   7   2   6 623.344 89.5466   1
   7   2   7 1887.04 141.312   1
   7   2   8 1800.47 137.746   1
   7   2   9 4524.46 221.448   1
   7   2  10 793.671 106.533   1
   7   2  11 393.997 79.5254   1
   7   2  12-95.5326 73.9611   1
   7   2  13 250.163 70.2050   1
   7   2  14 802.227 109.435   1
   7   2  15-12.6680 55.6078   1
   7  -2  15-118.250 67.8489   1
   7   2  16 228.276 74.2608   1
   7  -2  16 370.490 88.4712   1
   7   2  17 96.9257 68.7599   1
   7  -2  17-95.4254 78.4909   1
   7   2  18 360.302 85.1817   1
   7  -2  18 290.939 85.3391   1
   7  -2  19 70.3390 64.6198   1
   7   2  19 92.2675 76.1149   1
   7  -2  20 63.9236 74.2160   1
   7   2  20 55.2749 68.8255   1
   7  -2  21-94.3608 69.1624   1
   7   2  21 38.5890 57.1622   1
   7  -2  22 71.2687 74.9565   1
   7   2  22-74.9864 73.8689   1
  -7   3  20 346.263 114.308   2
  -7   3  19 312.126 102.168   2
  -7   3  18-66.8686 74.3476   2
  -7   3  17 1203.41 151.566   2
  -7   3  16 48.5749 70.7927   2
  -7   3  15 871.462 122.812   2
  -7   3  14 1407.85 151.252   2
  -7   3  13 1106.57 125.499   2
  -7   3  12 1853.07 158.665   2
  -7   3  11 682.044 109.455   2
  -7   3  10 1171.96 121.144   2
   7  -3  -9 3211.66 113.831   1
  -7   3   9 3643.42 193.133   2
  -7   3   8 501.514 83.2415   2
   7  -3  -8 446.767 47.4555   1
   7   3  -7 3135.85 122.275   1
   7  -3  -7 2987.75 122.596   1
  -7   3   7 3064.70 173.849   2
  -7   3   6 316.347 70.4929   2
   7  -3  -6 250.970 43.9292   1
   7   3  -6 328.657 46.5798   1
   7   3  -5 110.481 37.1273   1
   7   3  -4 18.3124 17.1004   3
   7   3  -4 58.7702 36.5877   1
  -7   3   4 54.9605 33.8585   3
   7   3  -3 7455.63 179.601   3
  -7   3   3 7764.67 225.093   3
   7   3  -3 7593.98 233.184   1
  -7   3   2 59.3506 30.4129   3
   7   3  -2 65.7164 42.7020   1
  -7   3   1 4787.00 164.335   3
   7   3  -1 4777.68 184.528   1
   7   3  -1 4396.96 144.450   4
   7   3   0 552.944 71.3609   1
  -7   3   0 368.498 46.9692   3
  -7  -3   0 524.940 36.9283   3
   7   3   0 421.934 39.8900   4
  -7   3  -1 12299.7 291.198   3
  -7  -3  -1 12460.8 237.861   3
   7   3   1 12349.8 247.363   4
   7   3   1 11871.9 332.329   1
  -7   3  -2 169.902 38.0765   3
   7  -3   2 174.641 30.9756   2
  -7  -3  -2 181.468 23.6276   3
   7   3   2 137.042 54.5903   1
   7   3   2 189.391 21.7611   4
  -7   3  -3 697.409 63.4985   3
  -7  -3  -3 702.635 42.4818   3
   7   3   3 690.319 86.2110   1
   7   3   3 609.664 28.3440   4
   7  -3   3 549.336 44.6692   2
  -7   3  -4 1758.16 95.2672   3
  -7  -3  -4 1638.83 69.7992   3
   7   3   4 1663.12 121.789   1
   7  -3   4 1655.29 68.2134   2
   7  -3   5 247.436 22.9203   2
   7   3   5 227.435 63.8112   1
   7   3   6 760.647 94.0136   1
   7   3   7 6246.01 253.784   1
   7   3   8 2395.25 157.477   1
   7   3   9 326.726 77.5067   1
   7   3  10 30.7950 48.7855   1
   7   3  11 61.5870 64.3616   1
   7   3  12 2846.36 181.239   1
   7   3  13 292.475 81.2548   1
   7   3  14 747.002 150.661   1
   7   3  15 475.758 86.1345   1
   7   3  16 15.6516 56.6462   1
   7  -3  16-77.0061 65.0536   1
   7  -3  17 130.522 69.0849   1
   7   3  17 285.597 82.1916   1
   7  -3  18-89.8722 75.7598   1
   7   3  18-89.7665 64.5790   1
   7  -3  19 73.2858 66.5287   1
   7   3  19 15.8492 63.7927   1
   7  -3  20 180.915 76.5488   1
   7   3  20 215.436 83.6767   1
   7   3  21 78.7347 66.6400   1
   7  -3  21 31.9303 75.3338   1
   7   3  22 186.534 83.5169   1
  -7   4  19 208.273 143.912   2
  -7   4  18 210.815 95.7596   2
  -7   4  17 238.252 88.4525   2
  -7   4  16 331.284 102.325   2
  -7   4  15 2411.19 190.867   2
  -7   4  14 339.414 97.0340   2
  -7   4  13 4111.28 229.648   2
  -7   4  12 17.5183 58.9195   2
  -7   4  11 1732.01 146.151   2
  -7   4  10 269.000 73.6795   2
  -7   4   9 169.651 68.2657   2
   7  -4  -9 24.2404 23.3629   1
   7  -4  -8 3523.05 129.342   1
  -7   4   8 3858.95 196.975   2
  -7   4   7 3433.88 179.512   2
  -7   4   6 422.799 73.9948   2
   7   4  -6 378.738 49.0142   1
   7   4  -5 4444.29 141.156   3
   7   4  -5 4444.19 162.838   1
  -7   4   5 4874.64 183.084   3
  -7   4   5 5030.12 203.830   2
   7   4  -4 905.219 55.7082   3
   7   4  -4 896.817 77.9700   1
  -7   4   4 870.984 77.4389   3
  -7   4   4 1011.34 94.3712   2
   7   4  -3 5789.20 145.472   3
  -7   4   3 5635.23 194.146   3
   7   4  -3 5815.35 200.292   1
  -7   4   2 881.743 72.8028   3
   7   4  -2 832.895 79.8299   1
  -7   4   1 652.873 62.5953   3
   7   4  -1 491.603 63.7568   1
   7   4  -1 556.296 51.3058   4
  -7   4   0 3723.92 143.489   3
   7   4   0 3712.48 166.091   1
   7   4   0 3305.91 119.539   4
  -7   4  -1 161.280 42.0416   3
  -7  -4  -1 178.976 21.0697   3
   7   4   1 153.427 48.6285   1
   7   4   1 198.584 29.0603   4
   7  -4   2 84.4859 24.5346   2
  -7   4  -2 44.1123 30.6029   3
  -7  -4  -2 78.8581 14.9673   3
   7   4   2 72.3848 49.9567   1
   7   4   2 39.2121 15.7042   4
  -7   4  -3 4341.47 156.894   3
  -7  -4  -3 4212.80 106.813   3
   7   4   3 4428.36 192.990   1
   7   4   3 4263.68 104.503   4
   7  -4   3 3893.64 118.279   2
   7  -4   4 25.8610 14.5141   2
  -7   4  -4 37.2941 31.3067   3
  -7  -4  -4 34.9318 16.0667   3
   7   4   4-34.9290 44.8491   1
   7   4   4 2.35674 6.04820   4
   7  -4   5 3773.96 90.3295   2
   7   4   5 3967.70 189.815   1
   7   4   6 810.728 97.2690   1
   7   4   7 12.4519 50.3631   1
   7   4   8 538.368 83.8191   1
   7   4   9-63.6895 63.0275   1
   7   4  10-5.38589 58.0240   1
   7   4  11 3357.33 194.511   1
   7   4  12 378.961 83.1100   1
   7   4  13 438.432 85.0669   1
   7   4  14 598.628 150.023   1
   7   4  15 32.1471 61.2512   1
   7   4  16 316.610 86.5754   1
   7   4  17 106.518 67.7807   1
   7  -4  18 133.503 66.9994   1
   7   4  18 304.352 92.2249   1
   7  -4  19 127.514 70.6271   1
   7   4  19 294.804 91.6607   1
   7   4  20-23.9543 64.0542   1
   7  -4  20-55.1814 67.9945   1
   7   4  21 246.912 79.1559   1
   7  -4  21-39.3398 75.9267   1
  -7   5  19 230.604 102.465   2
  -7   5  18 305.793 91.7289   2
  -7   5  17 868.851 139.645   2
  -7   5  16 364.085 96.2313   2
  -7   5  15-27.6465 62.9683   2
  -7   5  14 764.390 112.896   2
  -7   5  13 227.592 83.0240   2
  -7   5  12 1044.43 122.988   2
  -7   5  11 2393.22 171.117   2
  -7   5  10 371.870 76.9907   2
   7  -5  -9 197.493 32.3144   1
  -7   5   9 305.665 74.5671   2
  -7   5   8-38.7882 52.1185   2
  -7   5   7 387.542 72.8777   2
  -7   5   6 872.391 93.7331   2
  -7   5   5 71.7028 49.3392   2
   7   5  -5 11.4521 16.6695   3
   7   5  -5 12.8167 33.4670   1
  -7   5   5-19.9935 38.1630   3
   7   5  -4 2131.56 82.0265   3
   7   5  -4 2259.40 116.354   1
  -7   5   4 2243.52 124.459   3
  -7   5   4 2083.69 129.333   2
   7   5  -3 1531.15 61.8673   3
  -7   5   3 1527.99 99.8599   3
   7   5  -3 1376.85 94.7017   1
  -7   5   3 1635.29 108.496   2
  -7   5   2 1206.76 88.7265   3
   7   5  -2 1242.47 95.8177   1
  -7   5   1 5129.11 182.811   3
   7   5  -1 5285.92 197.326   1
  -7   5   0-57.5149 37.6720   3
   7   5   0-44.3164 49.1508   1
  -7   5  -1 2017.64 108.000   3
   7   5   1 1947.19 125.215   1
   7  -5   1 1843.45 85.9205   2
  -7   5  -2 3260.75 137.064   3
  -7  -5  -2 2849.41 69.9301   3
   7   5   2 3082.87 161.048   1
   7  -5   2 3125.24 105.501   2
  -7   5  -3 175.421 43.6437   3
  -7  -5  -3 127.204 15.6232   3
   7   5   3 166.804 58.6847   1
   7  -5   3 82.1583 17.7149   2
  -7   5  -4 1735.92 101.356   3
  -7  -5  -4 1777.14 60.7176   3
   7  -5   4 1561.50 57.8694   2
   7   5   4 1569.07 120.311   1
   7  -5   5 1309.10 40.5122   2
   7   5   5 1524.87 121.902   1
   7   5   6 2093.03 141.054   1
   7   5   7 168.156 59.4672   1
   7   5   8 1255.75 114.282   1
   7   5   9 138.444 57.5587   1
   7   5  10 1248.30 120.589   1
   7   5  11 137.527 68.1484   1
   7   5  12 555.178 95.6946   1
   7   5  13-32.5880 63.7889   1
   7   5  14 863.428 109.213   1
   7   5  15 108.252 67.4563   1
   7   5  16-20.6416 64.5063   1
   7   5  17 432.856 95.7053   1
   7   5  18-29.1680 63.0537   1
   7  -5  19-30.6612 79.0734   1
   7   5  19 291.287 89.7606   1
   7   5  20 238.348 82.2792   1
   7  -5  20 329.787 88.3627   1
   7   5  21 47.8592 61.2970   1
   7  -5  21-34.9006 71.2685   1
  -7   6  19 522.454 118.242   2
  -7   6  18 21.5061 76.4817   2
  -7   6  17 45.3069 73.6398   2
  -7   6  16 118.358 72.2589   2
  -7   6  15 1122.93 142.139   2
  -7   6  14 112.658 69.5233   2
  -7   6  13 3587.87 219.994   2
  -7   6  12 93.9589 66.8588   2
  -7   6  11 2635.45 178.774   2
  -7   6  10 271.386 71.4884   2
  -7   6   9-17.2679 48.9933   2
  -7   6   8 345.709 67.5929   2
  -7   6   7 5316.82 226.661   2
  -7   6   6 1841.70 121.452   3
  -7   6   6 1851.76 128.639   2
  -7   6   6 1826.15 119.421   4
   7   6  -5 6435.29 167.127   3
  -7   6   5 6949.69 235.830   3
  -7   6   5 6889.76 243.143   2
  -7   6   5 6626.11 224.366   4
   7   6  -4 824.171 47.2062   3
   7   6  -4 912.817 76.2067   1
  -7   6   4 702.353 71.9945   3
  -7   6   4 983.206 91.9617   2
  -7   6   4 854.033 76.6522   4
  -7   6   3 5034.67 189.210   3
   7   6  -3 4738.71 177.729   1
  -7   6   3 4829.25 188.955   2
  -7   6   3 5102.69 176.474   4
   7   6  -3 4716.00 113.598   3
  -7   6   2 83.6057 42.5220   2
  -7   6   2-35.5517 39.6907   3
   7   6  -2 39.4812 41.9741   1
  -7   6   2 8.79009 25.7528   4
  -7   6   1 175.323 46.7434   2
  -7   6   1 133.736 36.6270   3
   7   6  -1 176.187 53.6181   1
  -7   6   1 182.353 37.8295   4
   7   6   0 3.53052 43.8019   1
  -7   6   0-100.999 43.3488   3
  -7   6   0 22.9634 23.3016   4
  -7   6  -1 1403.86 94.8422   3
   7   6   1 1393.27 106.819   1
   7  -6   1 1236.90 68.5364   2
  -7   6  -1 1389.98 68.0883   4
  -7   6  -2 588.694 64.0154   3
   7   6   2 508.115 74.8796   1
   7  -6   2 529.969 40.8143   2
  -7   6  -2 615.145 40.4523   4
  -7   6  -3 7063.99 221.998   3
   7   6   3 7304.60 257.534   1
   7  -6   3 7106.99 158.243   2
  -7   6  -4 234.549 47.4148   3
  -7  -6  -4 205.573 18.0060   3
   7   6   4 269.189 65.0182   1
   7  -6   4 225.114 20.8511   2
  -7  -6  -5 6703.81 140.951   3
   7   6   5 7343.79 267.390   1
   7   6   6 90.7715 57.8642   1
   7   6   7 1978.85 142.519   1
   7   6   8 288.260 73.6526   1
   7   6   9 899.426 107.901   1
   7   6  10 586.994 94.6234   1
   7   6  11 1418.19 128.071   1
   7   6  12-24.9793 61.2257   1
   7   6  13 1862.37 151.206   1
   7   6  14-12.1322 58.9401   1
   7   6  15 402.186 87.9353   1
   7   6  16 33.3404 58.3202   1
   7   6  17-11.1230 65.8205   1
   7   6  18 182.144 86.3242   1
   7   6  19 278.987 84.7159   1
   7   6  20-35.2198 64.5404   1
   7  -6  20-42.3862 67.6071   1
   7  -6  21 80.5217 64.5758   1
   7   6  21 334.276 88.4908   1
  -7   7  19 154.376 97.7258   2
  -7   7  18 16.4132 66.0847   2
  -7   7  17-0.90042 65.2505   2
  -7   7  16 285.055 95.4586   2
  -7   7  15 147.001 79.1145   2
  -7   7  14 910.038 127.967   2
  -7   7  13 75.6163 69.6032   2
  -7   7  12 1261.20 134.294   2
  -7   7  11 15.7752 53.0609   2
  -7   7  10 612.079 93.5861   2
  -7   7   9 119.024 68.2780   2
  -7   7   9 174.564 61.5406   4
  -7   7   8 1350.57 117.445   2
  -7   7   8 1180.64 107.652   4
  -7   7   7 4143.29 203.467   2
  -7   7   7 4326.89 197.835   4
  -7   7   6 1382.08 110.784   3
  -7   7   6 1467.22 115.542   2
  -7   7   6 1301.16 102.669   4
  -7   7   5 42.0289 40.3024   3
  -7   7   5 56.0753 45.6374   2
  -7   7   5 10.1518 38.0267   4
  -7   7   4 905.756 85.3165   3
  -7   7   4 1005.89 92.4420   2
  -7   7   4 1018.25 86.6286   4
   7   7  -3 115.015 42.4169   1
  -7   7   3 168.914 46.1568   3
  -7   7   3 128.685 41.2775   4
  -7   7   3 120.057 42.6711   2
  -7   7   2 1681.91 108.911   3
   7   7  -2 1721.95 110.567   1
  -7   7   2 1824.80 111.294   2
  -7   7   2 1743.00 97.5061   4
  -7   7   1 789.042 73.0486   3
  -7   7   1 1003.00 79.7330   2
   7   7  -1 722.419 78.5286   1
  -7   7   1 875.009 66.7630   4
  -7   7   0 684.479 75.2651   3
  -7   7   0 866.691 74.6778   2
  -7   7   0 810.559 63.5699   4
   7   7   0 719.906 85.1282   1
  -7   7  -1 882.529 77.7362   3
   7  -7   1 773.150 53.5149   2
  -7   7  -1 950.878 59.6404   4
   7   7   1 939.078 93.5553   1
  -7   7  -2 2445.58 126.463   3
   7   7   2 2299.72 140.542   1
   7  -7   2 2284.61 83.3351   2
  -7   7  -2 2282.22 86.4922   4
  -7   7  -3 1113.03 88.0975   3
   7   7   3 1188.52 107.563   1
   7  -7   3 990.330 47.6015   2
  -7   7  -3 1107.99 52.4636   4
  -7   7  -4 3638.71 155.802   3
   7   7   4 3605.04 181.267   1
  -7   7  -4 3548.06 91.4571   4
  -7  -7  -5 2.23838 7.52706   3
   7   7   5 146.267 64.7914   1
  -7   7  -5 13.7884 7.97298   4
   7   7   6 2520.46 155.594   1
   7   7   7 131.832 68.7562   1
   7   7   8-54.5549 62.3825   1
   7   7   9 257.218 72.5349   1
   7   7  10 68.6614 60.3456   1
   7   7  11 142.416 66.0626   1
   7   7  12 1285.64 127.842   1
   7   7  12 1486.89 85.9287   2
   7   7  13 64.6633 64.3876   1
   7   7  14 428.197 86.4900   1
   7   7  15 31.0934 64.7072   1
   7   7  16 190.162 71.4425   1
   7   7  17-5.39762 60.5885   1
   7   7  18 302.458 89.7225   1
   7   7  19 122.946 70.5668   1
   7   7  20 280.451 82.3184   1
   7  -7  21-3.69635 69.5323   1
   7   7  21 116.845 66.8972   1
  -7   8  19 200.821 87.5572   2
  -7   8  18-86.5600 89.8511   2
  -7   8  17-19.8400 73.6981   2
  -7   8  16-49.8895 76.4309   2
  -7   8  15 1593.13 161.720   2
  -7   8  14 165.801 78.0048   2
  -7   8  13 3253.02 211.864   2
  -7   8  12 286.097 80.0272   2
  -7   8  11 2263.10 166.612   2
  -7   8  10 119.075 60.1975   2
  -7   8  10 121.073 61.3813   4
  -7   8   9 1015.09 111.408   2
  -7   8   9 1063.29 109.929   4
  -7   8   8 722.172 92.8675   2
  -7   8   8 608.474 82.3425   4
  -7   8   7 815.073 89.4904   3
  -7   8   7 687.687 88.3702   2
  -7   8   7 759.261 86.7030   4
  -7   8   6 919.290 96.3565   3
  -7   8   6 1056.03 99.1596   2
  -7   8   6 952.264 90.0684   4
  -7   8   5 8172.92 271.137   3
  -7   8   5 8032.81 270.449   2
  -7   8   5 7996.81 259.249   4
  -7   8   4 326.946 55.8311   3
  -7   8   4 394.482 63.4972   2
  -7   8   4 472.582 64.1088   4
  -7   8   3 6086.18 222.487   3
  -7   8   3 6016.54 213.939   2
  -7   8   3 5951.03 200.446   4
  -7   8   2 1915.43 120.582   3
   7   8  -2 2074.40 122.578   1
  -7   8   2 2034.12 114.366   2
  -7   8   2 2012.74 107.389   4
  -7   8   1 319.552 54.1482   3
   7   8  -1 262.179 55.4234   1
  -7   8   1 275.797 42.3879   4
  -7   8   1 333.356 50.1212   2
  -7   8   0 316.206 49.0874   2
  -7   8   0 324.941 56.7129   3
   7   8   0 310.372 62.1225   1
  -7   8   0 256.025 39.3937   4
  -7   8  -1 4237.92 173.420   3
   7   8   1 4152.01 187.976   1
   7  -8   1 3742.37 121.695   2
  -7   8  -1 4595.83 152.790   2
  -7   8  -1 4238.86 136.649   4
  -7   8  -2 24.8574 34.3001   3
   7  -8   2 49.7044 18.3535   2
   7   8   2 3.41477 43.4429   1
  -7   8  -2 22.2704 18.9911   4
  -7   8  -3 3851.41 167.753   3
   7   8   3 3975.72 186.414   1
  -7   8  -3 3862.14 114.537   4
  -7   8  -4 286.196 55.6053   3
  -7   8  -4 218.771 26.0123   4
   7   8   4 297.353 65.2889   1
   7   8   5 1106.34 106.715   1
  -7   8  -5 1172.54 49.0995   4
   7   8   6 447.449 83.5805   1
   7   8   7 415.813 81.9406   1
   7   8   8 54.0622 54.5920   1
   7   8   9 394.546 84.3835   1
   7   8  10 125.106 65.6815   1
   7   8  11 2039.74 153.177   1
   7   8  12 111.882 68.0178   1
   7   8  13 510.543 96.8503   1
   7   8  14 88.9546 62.6708   1
   7   8  15 842.438 117.166   1
   7   8  16 28.2039 64.0104   1
   7   8  17 192.783 74.0568   1
   7   8  18 51.5277 62.5194   1
   7   8  19 478.741 96.5634   1
   7   8  20 43.9086 64.9283   1
   7   8  21 154.556 72.4737   1
  -7   9  19 658.532 125.236   2
  -7   9  18 13.9559 65.5367   2
  -7   9  17 639.881 115.268   2
  -7   9  16 19.3525 79.4858   2
  -7   9  15 212.638 86.4690   2
  -7   9  14 440.411 98.7670   2
  -7   9  13 239.010 76.4131   2
  -7   9  12 405.997 89.9082   2
  -7   9  12 536.127 98.0942   4
  -7   9  11 1195.48 127.772   2
  -7   9  11 1102.75 117.020   4
  -7   9  10 531.112 90.4106   2
  -7   9  10 551.336 91.9127   4
  -7   9   9 493.600 86.7937   2
  -7   9   9 631.497 86.9135   4
  -7   9   8 13.1688 51.7124   2
  -7   9   8 114.011 54.8331   4
  -7   9   7 3054.20 171.069   2
  -7   9   7 2925.48 167.511   3
  -7   9   7 2987.93 165.064   4
  -7   9   6 4952.50 216.128   2
  -7   9   6 5161.36 218.753   3
  -7   9   6 4956.27 206.326   4
  -7   9   5 3772.04 180.315   3
  -7   9   5 3731.17 177.348   2
  -7   9   5 3735.38 171.306   4
  -7   9   4 2588.37 147.136   3
  -7   9   4 2541.20 143.093   2
  -7   9   4 2620.49 136.175   4
  -7   9   3 80.9013 42.2534   3
  -7   9   3 18.7649 34.9744   2
  -7   9   3 69.0550 33.0897   4
  -7   9   2 2030.22 125.373   3
  -7   9   2 2165.29 120.111   2
  -7   9   2 2040.42 110.760   4
  -7   9   1 2712.55 143.146   3
  -7   9   1 2794.30 131.008   2
  -7   9   1 2760.74 123.043   4
  -7   9   0-9.03320 37.2430   3
   7   9   0-31.4138 43.0113   1
  -7   9   0 10.5920 24.2398   4
  -7   9   0-26.3569 29.4282   2
  -7   9  -1 2436.58 135.808   3
   7   9   1 2555.30 146.430   1
  -7   9  -1 2559.16 112.101   2
  -7   9  -1 2504.23 106.155   4
  -7   9  -2 487.697 64.4901   3
   7   9   2 675.468 81.6400   1
  -7   9  -2 717.242 56.7614   2
  -7   9  -2 586.269 48.6892   4
  -7   9  -3 1909.57 120.421   3
   7   9   3 1876.07 128.300   1
  -7   9  -4 1596.59 112.279   3
   7   9   4 1471.19 118.789   1
   7   9   5 123.553 58.0220   1
  -7   9  -5 198.848 55.3714   3
   7   9   6 888.806 103.161   1
   7   9   7 924.850 102.757   1
   7   9   8 579.490 94.4870   1
   7   9   9 1108.69 116.002   1
   7   9  10 392.169 79.7583   1
   7   9  11 728.017 100.997   1
   7   9  12 366.556 85.3465   1
   7   9  13-13.2584 53.2330   1
   7   9  14 992.812 121.122   1
   7   9  15 466.427 89.1355   1
   7   9  16-112.753 71.1137   1
   7   9  17 186.669 73.5115   1
   7   9  18 35.4774 56.8614   1
   7   9  19 179.729 73.3487   1
   7   9  20 263.409 79.1994   1
  -7  10  18 95.0766 78.4451   2
  -7  10  17-20.0295 78.1525   2
  -7  10  16 155.931 73.0192   2
  -7  10  15 750.126 114.435   2
  -7  10  14 126.092 76.6644   2
  -7  10  13 1078.98 128.057   2
  -7  10  13 1215.85 132.329   4
  -7  10  12 73.3888 57.4378   2
  -7  10  12 61.4110 66.3443   4
  -7  10  11 2209.82 169.071   2
  -7  10  11 2386.66 169.372   4
  -7  10  10 277.533 72.2320   2
  -7  10  10 392.301 79.2370   4
  -7  10   9 25.2679 53.2024   2
  -7  10   9 34.7552 53.1070   4
  -7  10   8 538.004 83.7729   2
  -7  10   8 357.543 73.0307   4
  -7  10   7 2951.42 170.093   2
  -7  10   7 3075.43 173.536   3
  -7  10   7 2859.07 163.746   4
  -7  10   6 1142.21 107.007   3
  -7  10   6 1110.85 102.754   2
  -7  10   6 1125.15 102.571   4
  -7  10   5 4576.62 202.478   2
  -7  10   5 4613.67 205.912   3
  -7  10   5 4891.73 198.783   4
  -7  10   4 1408.99 111.365   3
  -7  10   4 1375.09 106.489   2
  -7  10   4 1487.01 105.021   4
  -7  10   3 667.926 79.4095   3
  -7  10   3 728.342 77.0911   2
  -7  10   3 621.383 66.3477   4
  -7  10   2 1866.35 124.262   3
  -7  10   2 1947.78 115.406   2
  -7  10   2 1923.06 109.069   4
  -7  10   1 3.14876 42.0597   3
  -7  10   1 46.3610 34.0986   2
  -7  10   1-3.67343 33.6939   4
  -7  10   0 1000.63 91.8901   3
  -7  10   0 788.122 68.1715   2
  -7  10   0 883.467 69.4640   4
  -7  10  -1 2648.49 145.342   3
   7  10   1 2671.62 148.534   1
  -7  10  -1 2695.13 117.504   2
  -7  10  -2 579.498 73.2133   3
   7  10   2 512.683 75.4778   1
  -7  10  -2 618.482 53.5835   2
  -7  10  -3 1983.73 126.124   3
   7  10   3 2039.40 135.374   1
  -7  10  -4 201.896 55.5428   3
   7  10   4 115.860 58.8631   1
  -7  10  -5 3938.37 180.730   3
   7  10   5 3796.84 189.546   1
   7  10   6-60.9258 47.3776   1
   7  10   7 1112.07 118.417   1
   7  10   8-11.2753 48.8664   1
   7  10   9 315.014 68.5977   1
   7  10  10 420.860 81.5785   1
   7  10  11 1566.33 137.548   1
   7  10  12 251.070 69.3225   1
   7  10  13 1645.81 145.652   1
   7  10  13 1939.73 109.736   2
   7  10  14 127.681 66.3875   1
   7  10  15 91.6936 60.8499   1
   7  10  16 358.201 85.6301   1
   7  10  17-40.2784 63.0741   1
   7  10  18 98.8875 64.3860   1
   7  10  19 35.4687 62.2420   1
   7  10  20 148.929 70.9254   1
  -7  11  18 276.421 104.940   2
  -7  11  17 1534.72 170.503   2
  -7  11  16 75.7630 77.0156   2
  -7  11  15 966.330 133.590   2
  -7  11  14 107.363 61.6673   2
  -7  11  14 264.552 85.0650   4
  -7  11  13-51.5385 70.4536   2
  -7  11  13 61.0255 57.5581   4
  -7  11  12 186.825 77.1218   2
  -7  11  12 229.462 77.4482   4
  -7  11  11 164.319 65.0639   2
  -7  11  11 351.301 78.9150   4
  -7  11  10 156.262 69.5649   2
  -7  11  10 307.947 82.0131   4
  -7  11   9 2930.47 183.616   2
  -7  11   9 3166.12 184.710   4
  -7  11   8-2.78170 47.9434   3
  -7  11   8 61.1367 52.7597   2
  -7  11   8 9.41428 45.4522   4
  -7  11   7 4597.33 216.843   2
  -7  11   7 5014.40 228.338   3
  -7  11   7 4874.01 215.104   4
  -7  11   6 396.521 76.3569   3
  -7  11   6 459.977 75.0129   2
  -7  11   6 435.939 72.5503   4
  -7  11   5 589.557 82.2356   3
  -7  11   5 444.644 67.1682   2
  -7  11   5 595.203 75.6077   4
  -7  11   4 2687.89 148.980   2
  -7  11   4 2873.23 162.585   3
  -7  11   4 2953.56 149.034   4
  -7  11   3 406.194 69.7721   3
  -7  11   3 455.878 65.8002   2
  -7  11   3 437.264 59.3232   4
  -7  11   2 312.771 62.4386   3
  -7  11   2 346.214 54.7933   2
  -7  11   2 328.673 53.2312   4
  -7  11   1 1912.98 129.192   3
  -7  11   1 2082.20 115.093   2
  -7  11   1 1914.39 108.407   4
  -7  11   0 2214.12 138.408   3
  -7  11   0 2041.20 109.599   2
  -7  11  -1 5062.73 210.370   3
  -7  11  -1 5349.99 173.106   2
  -7  11  -2 142.391 48.9873   3
  -7  11  -2 101.952 32.3892   2
  -7  11  -3 79.7904 27.1679   2
  -7  11  -3 60.5560 41.8766   3
   7  11   3 29.7516 48.9328   1
  -7  11  -4 463.825 72.4253   3
   7  11   4 416.851 72.3875   1
  -7  11  -5 1112.40 101.019   3
   7  11   5 914.984 101.143   1
   7  11   6 1801.58 135.668   1
   7  11   7 1732.08 138.445   1
   7  11   8 11.4769 54.9697   1
   7  11   9 2786.04 174.675   1
   7  11  10 119.128 66.9544   1
   7  11  11 851.119 107.502   1
   7  11  12 467.108 87.1941   1
   7  11  13 212.776 51.4439   2
   7  11  13 227.954 74.3630   1
   7  11  14 344.504 86.6708   1
   7  11  15 450.070 97.4925   1
   7  11  16 226.365 78.4206   1
   7  11  17 1033.48 127.514   1
   7  11  18 33.2000 57.9486   1
   7  11  19 225.715 73.9064   1
  -7  12  18 395.439 108.467   2
  -7  12  17 15.5634 78.8537   2
  -7  12  16 29.7556 73.2724   2
  -7  12  15 469.380 100.395   2
  -7  12  15 398.092 103.805   4
  -7  12  14-29.5520 74.4717   2
  -7  12  14 96.1154 70.4116   4
  -7  12  13 2.71683 64.1626   2
  -7  12  13 75.3381 62.5406   4
  -7  12  12 18.7130 57.9699   2
  -7  12  12-74.2288 65.0542   4
  -7  12  11 259.938 73.4501   2
  -7  12  11 376.533 82.1192   4
  -7  12  10 854.206 110.782   2
  -7  12  10 743.897 103.498   4
  -7  12   9 124.599 61.9091   2
  -7  12   9 269.460 72.6091   4
  -7  12   8 1888.21 144.006   2
  -7  12   8 1947.62 146.566   3
  -7  12   8 1849.54 142.265   4
  -7  12   7 72.9597 54.0495   3
  -7  12   7 71.7229 50.4586   2
  -7  12   7 133.933 60.5794   4
  -7  12   6 43.0894 48.5311   3
  -7  12   6-4.53779 45.2857   2
  -7  12   6 56.7452 45.4184   4
  -7  12   5 834.466 96.1721   3
  -7  12   5 811.893 89.2514   2
  -7  12   5 939.425 92.6263   4
  -7  12   4-3.21263 43.7751   3
  -7  12   4-16.5451 41.6736   2
  -7  12   4 64.9054 38.5715   4
  -7  12   3-0.97553 44.8791   3
  -7  12   3-19.0732 38.6841   2
  -7  12   3-8.36109 40.0098   4
  -7  12   2 2595.37 156.469   3
  -7  12   2 2761.05 140.876   2
  -7  12   1 492.660 76.3685   3
  -7  12   1 484.370 62.6951   2
  -7  12   0 422.687 72.5872   3
  -7  12   0 475.759 56.4318   2
  -7  12  -1-21.0316 47.0310   3
  -7  12  -1-8.57939 30.6100   2
  -7  12  -2 62.0648 37.7637   3
  -7  12  -2 112.724 30.1982   2
  -7  12  -3 2829.20 157.701   3
  -7  12  -3 2916.91 109.791   2
  -7  12  -4 46.0109 43.8439   3
  -7  12  -5 274.047 68.4647   3
   7  12   5 125.566 54.4226   1
   7  12   6 1140.74 116.310   1
   7  12   7 191.724 71.8346   1
   7  12   8 1403.05 126.305   1
   7  12   9 820.707 105.232   1
   7  12  10 945.628 111.039   1
   7  12  11 682.564 99.1812   1
   7  12  12 912.597 111.763   1
   7  12  13 278.566 77.7733   1
   7  12  14 214.395 66.2591   1
   7  12  15 121.270 70.8526   1
   7  12  16 227.151 73.0779   1
   7  12  17 275.953 80.9928   1
  -7  13  17 929.536 138.422   2
  -7  13  16 210.009 81.0057   2
  -7  13  16 269.669 90.9098   4
  -7  13  15 1012.09 133.880   2
  -7  13  15 873.881 124.807   4
  -7  13  14-13.8251 70.2184   2
  -7  13  14-81.1253 78.1436   4
  -7  13  13-60.4781 72.3703   2
  -7  13  13 0.45441 59.1313   4
  -7  13  12 172.882 75.3040   2
  -7  13  12 292.955 72.8968   4
  -7  13  11 1628.07 149.799   2
  -7  13  11 1775.94 155.654   4
  -7  13  10 14.6936 50.7217   2
  -7  13  10 96.5370 63.5907   4
  -7  13   9 5254.36 251.144   2
  -7  13   9 5117.74 244.169   4
  -7  13   8-42.8864 54.3009   2
  -7  13   8 18.3938 57.5994   3
  -7  13   8-10.5035 47.9355   4
  -7  13   7 3063.81 179.659   2
  -7  13   7 2661.57 171.616   3
  -7  13   7 3131.62 176.565   4
  -7  13   6 123.484 61.2145   3
  -7  13   6 137.153 57.9675   2
  -7  13   6 92.9849 50.0770   4
  -7  13   5 685.363 87.9863   3
  -7  13   5 771.810 89.2063   2
  -7  13   5 723.550 82.3377   4
  -7  13   4-40.4241 59.8619   3
  -7  13   4-7.36847 39.9013   2
  -7  13   4-6.47615 37.3781   4
  -7  13   3 513.788 82.4353   3
  -7  13   3 499.609 67.0469   2
  -7  13   2-29.1670 49.4077   3
  -7  13   2 27.3758 34.4320   2
  -7  13   1 7687.41 279.196   3
  -7  13   1 8131.09 248.035   2
  -7  13   0-8.12194 52.1497   3
  -7  13   0 82.5953 34.2420   2
  -7  13  -1 1786.64 129.475   3
  -7  13  -1 1806.32 100.628   2
  -7  13  -2 781.082 89.2674   3
  -7  13  -2 903.291 67.2815   2
  -7  13  -3 3481.97 180.666   3
  -7  13  -3 3732.32 128.798   2
  -7  13  -4 911.899 98.4357   3
  -7  13  -5 690.920 88.7279   3
  -7  13  -6 186.763 66.7947   3
   7  13  11 331.082 72.4862   1
   7  13  14 356.196 62.2543   2
  -7  14  17 13.3538 68.1948   2
  -7  14  17-44.3305 68.7695   4
  -7  14  16 354.354 98.2201   2
  -7  14  16 257.155 100.038   4
  -7  14  15-53.5079 73.0682   2
  -7  14  15 109.776 72.1127   4
  -7  14  14 34.1943 63.3201   2
  -7  14  14 47.4189 58.7850   4
  -7  14  13 43.6062 57.5530   2
  -7  14  13-6.99653 70.1759   4
  -7  14  12-42.8827 59.1958   2
  -7  14  12-99.9637 72.6017   4
  -7  14  11 32.8050 59.6391   2
  -7  14  11 77.3307 58.6346   4
  -7  14  10 1172.88 131.748   2
  -7  14  10 1088.64 122.796   4
  -7  14   9 91.8264 58.3594   2
  -7  14   9 152.994 75.2716   3
  -7  14   9 113.059 66.9940   4
  -7  14   8 1306.26 133.886   3
  -7  14   8 1011.74 112.652   2
  -7  14   8 1068.00 114.246   4
  -7  14   7 778.722 101.013   2
  -7  14   7 946.376 114.148   3
  -7  14   7 838.543 102.023   4
  -7  14   6 1954.96 140.554   2
  -7  14   6 1941.64 146.973   3
  -7  14   6 2069.57 144.242   4
  -7  14   5 1959.21 136.024   2
  -7  14   5 1920.74 144.230   3
  -7  14   5 1942.23 133.125   4
  -7  14   4 2088.44 136.260   2
  -7  14   4 1826.97 140.301   3
  -7  14   4 1964.97 129.879   4
  -7  14   3-0.58947 51.7732   3
  -7  14   3 18.7720 39.6516   2
  -7  14   2-26.1969 55.8818   3
  -7  14   2 5.65976 34.2783   2
  -7  14   1 465.229 74.1762   3
  -7  14   1 400.756 59.2997   2
  -7  14   0 1510.71 128.747   3
  -7  14   0 1611.12 104.554   2
  -7  14  -1 217.225 58.8024   3
  -7  14  -1 325.411 48.5326   2
  -7  14  -2 1404.42 120.271   3
  -7  14  -2 1288.06 82.5916   2
  -7  14  -3 62.9738 48.3731   3
  -7  14  -4 104.938 54.2378   3
  -7  14  -5 820.710 97.2685   3
  -7  14  -6 256.571 73.2384   3
   7  14  14 59.5866 46.9521   2
  -7  15  17 412.679 107.974   2
  -7  15  17 436.457 108.530   4
  -7  15  16 112.866 73.5738   2
  -7  15  16 224.939 94.9899   4
  -7  15  15 599.932 116.384   2
  -7  15  15 503.724 106.692   4
  -7  15  14-23.5143 78.1764   2
  -7  15  14 54.5513 65.3348   4
  -7  15  13-82.9350 79.2163   2
  -7  15  13-2.69386 56.1646   4
  -7  15  12 58.6365 56.5119   2
  -7  15  12 125.415 75.4037   4
  -7  15  11 748.695 112.476   2
  -7  15  11 936.096 122.008   4
  -7  15  10 923.920 111.894   2
  -7  15  10 956.513 116.999   4
  -7  15   9 4551.15 237.886   2
  -7  15   9 4744.21 247.851   3
  -7  15   9 4456.93 231.618   4
  -7  15   8 68.6734 53.0565   2
  -7  15   8 101.810 57.2185   3
  -7  15   8 84.2701 55.5024   4
  -7  15   7 2589.37 169.013   2
  -7  15   7 2663.38 178.897   3
  -7  15   7 2482.12 162.589   4
  -7  15   6-92.5252 55.7237   2
  -7  15   6-40.5433 60.7342   3
  -7  15   6-7.04143 45.9664   4
  -7  15   5 197.614 57.7069   2
  -7  15   5 139.879 54.2364   3
  -7  15   5 178.178 52.4712   4
  -7  15   4 176.096 66.0712   3
  -7  15   4 233.916 55.8038   2
  -7  15   3 1343.51 109.746   2
  -7  15   3 1125.13 112.052   3
  -7  15   2 4.13683 53.2304   3
  -7  15   2-19.4312 45.5045   2
  -7  15   1 3508.87 159.911   2
  -7  15   1 3192.57 181.385   3
  -7  15   0 123.459 55.7910   3
  -7  15   0 80.6754 34.9659   2
  -7  15  -1 847.941 74.4594   2
  -7  15  -1 817.789 96.8489   3
  -7  15  -2 44.2422 43.5732   3
  -7  15  -2 109.203 32.4083   2
  -7  15  -3 66.6667 51.4826   3
  -7  15  -4 2477.04 160.481   3
  -7  15  -5 418.934 78.8805   3
  -7  15  -6 328.774 76.0087   3
   7  15  14 9.97724 44.9796   2
  -7  16  16 461.412 105.118   2
  -7  16  16 420.943 100.123   4
  -7  16  15 230.164 93.0900   2
  -7  16  15 288.106 88.0322   4
  -7  16  14 57.7440 71.8759   2
  -7  16  14-7.51715 73.2670   4
  -7  16  13 219.415 77.7735   2
  -7  16  13 261.670 82.5894   4
  -7  16  12 82.9460 71.7396   2
  -7  16  12 14.1180 54.7875   4
  -7  16  11 460.915 89.3460   2
  -7  16  11 520.496 94.4628   4
  -7  16  10 295.411 79.6286   2
  -7  16  10 534.813 101.841   4
  -7  16   9 246.591 75.9579   2
  -7  16   9 227.086 80.7657   3
  -7  16   9 202.497 65.3182   4
  -7  16   8 728.914 103.511   2
  -7  16   8 677.457 104.883   3
  -7  16   8 861.724 109.357   4
  -7  16   7 1060.59 114.207   4
  -7  16   7 1006.50 110.098   2
  -7  16   7 1107.07 122.018   3
  -7  16   6 49.3960 51.2564   2
  -7  16   6 161.132 58.3467   3
  -7  16   6 187.183 60.7809   4
  -7  16   5 583.369 79.1525   2
  -7  16   5 636.545 91.0427   3
  -7  16   4 238.551 62.1163   2
  -7  16   4 267.944 72.1385   3
  -7  16   3 556.773 85.8939   3
  -7  16   3 605.365 75.4176   2
  -7  16   2 85.1663 58.1953   3
  -7  16   2-21.9117 42.0582   2
  -7  16   1 377.719 74.4441   3
  -7  16   1 537.785 67.2150   2
  -7  16   0 2762.42 139.060   2
  -7  16   0 2536.32 165.617   3
  -7  16  -1 18.3891 54.8734   3
  -7  16  -1 6.12671 27.4204   2
  -7  16  -2 1356.82 126.652   3
  -7  16  -3 999.097 108.516   3
  -7  16  -4 75.2188 63.1069   3
  -7  16  -5 1675.43 138.306   3
  -7  16  -6 1413.72 126.849   3
  -7  16  -7 849.383 107.279   3
   7  16  14 91.2544 53.3018   2
  -7  17  16 114.221 83.2017   2
  -7  17  16 234.896 89.1259   4
  -7  17  15-9.66708 81.3894   2
  -7  17  15 53.3733 74.1511   4
  -7  17  14 503.478 117.430   2
  -7  17  14 440.443 108.487   4
  -7  17  13 23.9165 72.8949   2
  -7  17  13 82.2619 78.1763   4
  -7  17  12 165.496 69.9559   2
  -7  17  12 274.837 85.3086   4
  -7  17  11 315.609 82.1165   2
  -7  17  11 456.469 99.0470   4
  -7  17  10 97.6600 67.7556   2
  -7  17  10 221.875 71.8304   4
  -7  17   9 1955.93 163.064   2
  -7  17   9 1891.38 162.220   3
  -7  17   9 2058.09 164.146   4
  -7  17   8 257.021 71.7848   2
  -7  17   8 276.646 74.6345   3
  -7  17   8 352.550 80.7406   4
  -7  17   7 465.506 88.8929   2
  -7  17   7 376.931 80.8896   3
  -7  17   7 285.202 73.6802   4
  -7  17   6 523.067 80.4679   2
  -7  17   6 621.916 93.2689   3
  -7  17   5 78.4612 54.1668   2
  -7  17   5 15.8632 61.7584   3
  -7  17   4 1319.86 116.122   2
  -7  17   4 1078.14 118.447   3
  -7  17   3 1396.01 113.256   2
  -7  17   3 1264.14 123.862   3
  -7  17   2 262.218 58.2498   2
  -7  17   2 288.266 76.0621   3
  -7  17   1 94.4925 59.1275   3
  -7  17   1 238.632 50.8499   2
  -7  17   0 6.12436 56.1581   3
  -7  17   0-12.5114 37.3884   2
  -7  17  -1 1436.07 97.2281   2
  -7  17  -1 1377.68 126.251   3
  -7  17  -2-30.7203 51.7594   3
  -7  17  -3 170.146 61.6851   3
  -7  17  -4 592.203 95.1813   3
  -7  17  -5 507.748 92.3577   3
  -7  17  -6 19.4212 54.4688   3
  -7  17  -7 1224.55 126.121   3
   7  17  14 173.655 57.8286   2
  -7  18  15 314.885 103.213   2
  -7  18  15 193.293 82.7275   4
  -7  18  14 374.679 108.336   2
  -7  18  14 262.709 123.168   4
  -7  18  13 609.214 114.595   2
  -7  18  13 919.393 134.242   4
  -7  18  12 129.001 79.7637   2
  -7  18  12 134.594 78.7530   4
  -7  18  11 1118.45 136.240   2
  -7  18  11 1137.73 138.025   4
  -7  18  10-104.090 70.4640   2
  -7  18  10 39.0940 55.9868   4
  -7  18   9 404.353 86.4622   2
  -7  18   9 416.019 95.9416   3
  -7  18   9 384.464 80.9040   4
  -7  18   8 610.346 96.5339   2
  -7  18   8 503.647 98.2317   3
  -7  18   8 679.977 97.1458   4
  -7  18   7 1024.37 122.228   2
  -7  18   7 837.345 120.739   3
  -7  18   7 770.809 102.864   4
  -7  18   6 5.70556 52.6443   2
  -7  18   6-44.8517 70.4537   3
  -7  18   5 1941.86 147.157   2
  -7  18   5 1801.99 154.906   3
  -7  18   4 760.799 93.5674   2
  -7  18   4 578.697 92.4362   3
  -7  18   3 2287.41 146.825   2
  -7  18   3 2246.10 165.529   3
  -7  18   2 79.2369 43.3783   2
  -7  18   2-4.80598 57.3084   3
  -7  18   1 770.856 82.6983   2
  -7  18   1 681.382 98.8343   3
  -7  18   0 1106.36 117.192   3
  -7  18   0 1220.05 97.6861   2
  -7  18  -1 74.3227 59.3512   3
  -7  18  -2 841.210 106.604   3
  -7  18  -3 3176.26 192.933   3
  -7  18  -4 432.526 83.0444   3
  -7  18  -5 2138.83 161.013   3
  -7  18  -6 56.5992 57.5571   3
  -7  18  -7 802.730 114.406   3
  -7  18  -8 897.611 113.941   3
   7  18  14 125.531 52.6437   2
   7  18  15 15.8952 49.5106   2
  -7  19  15 1.67171 78.9631   2
  -7  19  15 124.764 78.3403   4
  -7  19  14 25.7641 71.5794   2
  -7  19  14-18.7310 70.4828   4
  -7  19  13 156.511 87.3433   2
  -7  19  13 334.261 99.3819   4
  -7  19  12 81.2082 79.1422   2
  -7  19  12 294.148 95.4414   4
  -7  19  11 155.531 76.9284   2
  -7  19  11 101.513 68.6943   4
  -7  19  10-91.2814 65.0692   2
  -7  19  10 1.14583 63.9715   4
  -7  19   9 6.01615 53.7604   2
  -7  19   9 43.0719 70.2825   3
  -7  19   9 22.7212 62.0751   4
  -7  19   8 198.455 69.6478   2
  -7  19   8 134.097 65.0080   3
  -7  19   8 125.677 63.6728   4
  -7  19   7-18.1472 57.7238   2
  -7  19   7 23.0339 69.7347   3
  -7  19   6 1215.34 123.080   2
  -7  19   6 1505.16 145.213   3
  -7  19   5 85.0374 53.2399   2
  -7  19   5 87.7124 62.5823   3
  -7  19   4 467.937 75.9179   2
  -7  19   4 358.144 86.4574   3
  -7  19   3 92.5605 47.2994   2
  -7  19   3-34.7546 61.8959   3
  -7  19   2 223.720 56.3273   2
  -7  19   2 261.600 71.0158   3
  -7  19   1 361.693 60.5623   2
  -7  19   1 263.247 67.5615   3
  -7  19   0 75.0403 40.6842   2
  -7  19   0 21.4290 49.5231   3
  -7  19  -1-3.35225 51.0046   3
  -7  19  -2 308.554 76.9060   3
  -7  19  -3 392.688 87.3529   3
  -7  19  -4 360.130 84.3966   3
  -7  19  -5 777.776 110.437   3
  -7  19  -6 237.344 77.6996   3
  -7  19  -7 234.727 79.6346   3
  -7  19  -8 194.989 78.8535   3
   7  19  14 544.453 88.1798   2
   7  19  15 255.989 69.5658   2
  -7  20  14 150.898 77.3244   2
  -7  20  14 174.475 88.1649   4
  -7  20  13 1173.97 151.448   2
  -7  20  13 1222.29 155.682   4
  -7  20  12 451.778 102.387   2
  -7  20  12 307.384 93.1775   4
  -7  20  11 1064.43 135.479   2
  -7  20  11 839.169 121.434   4
  -7  20  10-88.1464 62.4743   2
  -7  20  10 5.01793 67.1445   3
  -7  20  10-60.8286 68.2278   4
  -7  20   9 49.5353 57.2502   2
  -7  20   9-3.92540 60.8207   3
  -7  20   9-3.53342 57.4354   4
  -7  20   8 7.17617 55.1479   2
  -7  20   8 52.8823 54.5837   3
  -7  20   8-7.81080 60.9101   4
  -7  20   7 539.989 89.8113   2
  -7  20   7 746.781 107.853   3
  -7  20   6 358.172 79.8351   2
  -7  20   6 332.313 82.6920   3
  -7  20   5 2484.26 186.775   3
  -7  20   5 2747.35 174.386   2
  -7  20   4 419.204 77.5627   2
  -7  20   4 560.155 99.7940   3
  -7  20   3 1905.01 164.962   3
  -7  20   3 1917.51 137.930   2
  -7  20   2 30.1583 40.2778   2
  -7  20   2 23.1134 60.4191   3
  -7  20   1 354.559 62.6273   2
  -7  20   1 272.080 72.4081   3
  -7  20   0-141.306 81.4024   3
  -7  20  -1 125.992 64.1259   3
  -7  20  -2 447.311 89.4206   3
  -7  20  -3 2917.53 195.930   3
  -7  20  -4 194.810 77.3526   3
  -7  20  -5 1886.50 159.787   3
  -7  20  -6 414.446 93.4798   3
  -7  20  -7 147.575 74.8254   3
  -7  20  -8-19.0574 60.1572   3
  -7  20  -9 279.327 84.3364   3
   7  20  14 247.874 73.2441   2
   7  20  15 247.410 74.3154   2
  -7  21  13 38.3097 67.3524   2
  -7  21  13-34.9070 75.1145   4
  -7  21  12 105.306 70.6592   2
  -7  21  12 238.504 89.8284   4
  -7  21  11 85.8340 66.0640   2
  -7  21  11 120.674 75.8342   4
  -7  21  10-43.6585 59.4007   2
  -7  21  10-45.8982 79.3161   3
  -7  21  10 1.13897 55.4963   4
  -7  21   9 7.63711 56.4424   2
  -7  21   9-7.21669 67.5568   3
  -7  21   9-5.05203 56.9553   4
  -7  21   8 19.6636 61.9287   2
  -7  21   8-8.39112 58.7480   3
  -7  21   7 413.204 87.2385   2
  -7  21   7 510.368 98.8253   3
  -7  21   6 194.104 67.6925   2
  -7  21   6 295.468 82.1937   3
  -7  21   5 30.6472 50.8127   2
  -7  21   5 191.582 82.5942   3
  -7  21   4 1030.44 111.358   2
  -7  21   4 1158.32 133.719   3
  -7  21   3 122.872 53.5738   2
  -7  21   3 177.957 72.6680   3
  -7  21   2 1130.77 131.616   3
  -7  21   2 1285.12 113.318   2
  -7  21   1-32.7354 38.2138   2
  -7  21   1-141.934 84.1382   3
  -7  21   0-11.9699 59.1622   3
  -7  21  -1 383.100 79.5584   3
  -7  21  -2 200.135 72.4411   3
  -7  21  -3 246.220 76.9179   3
  -7  21  -4 1575.92 152.342   3
  -7  21  -5 337.900 81.3987   3
  -7  21  -6 209.279 82.3608   3
  -7  21  -7 225.302 83.4890   3
  -7  21  -8 192.540 80.9215   3
  -7  21  -9 90.2456 72.6795   3
   7  21  14 268.679 75.3841   2
   7  21  15 241.757 76.1168   2
  -7  22  13 41.5624 75.9132   2
  -7  22  13 63.4399 69.2919   4
  -7  22  12 160.760 84.8290   2
  -7  22  12 140.900 74.3541   4
  -7  22  11 630.864 113.057   2
  -7  22  11 547.209 105.686   4
  -7  22  10 116.436 74.9928   2
  -7  22  10 119.371 85.0550   3
  -7  22  10 285.847 83.8745   4
  -7  22   9-89.7665 76.8545   2
  -7  22   9-40.5444 79.5954   3
  -7  22   9 52.5318 64.3873   4
  -7  22   8-62.4566 61.9786   2
  -7  22   8-79.2975 74.2842   3
  -7  22   7 919.179 118.615   2
  -7  22   7 982.781 127.839   3
  -7  22   6 307.333 79.7118   2
  -7  22   6 213.571 78.9695   3
  -7  22   5 1057.73 116.538   2
  -7  22   5 1079.26 135.156   3
  -7  22   4 259.059 65.8169   2
  -7  22   4 460.893 102.661   3
  -7  22   3 1265.06 138.216   3
  -7  22   3 1351.10 121.761   2
  -7  22   2-4.77311 44.0920   2
  -7  22   2 43.3317 64.7425   3
  -7  22   1 102.369 60.3899   3
  -7  22   0 229.819 74.5906   3
  -7  22  -1 462.392 98.2651   3
  -7  22  -2 60.4639 61.2163   3
  -7  22  -3 1835.35 163.958   3
  -7  22  -4 85.1359 58.6114   3
  -7  22  -5 1566.64 153.975   3
  -7  22  -6 199.240 83.9584   3
  -7  22  -7 130.490 77.7727   3
  -7  22  -8 129.261 76.6825   3
  -7  22  -9 203.972 86.1199   3
  -7  22 -10 221.421 86.4258   3
   7  22  14 209.729 76.9651   2
   7  22  15 245.033 78.5938   2
  -7  23  12 125.887 70.4330   4
  -7  23  12 211.724 89.2814   2
  -7  23  11 21.7198 69.0453   2
  -7  23  11 124.600 81.8387   4
  -7  23  10-11.9513 69.6123   2
  -7  23  10 96.6073 80.9296   4
  -7  23   9 252.411 85.7460   2
  -7  23   9 235.418 88.4926   3
  -7  23   9 299.045 89.8992   4
  -7  23   8 137.352 65.1720   2
  -7  23   8 89.7801 73.3769   3
  -7  23   7 860.491 115.409   2
  -7  23   7 1119.02 137.023   3
  -7  23   6-67.0727 57.5873   2
  -7  23   6-20.0272 66.2614   3
  -7  23   5 372.280 81.4414   2
  -7  23   5 462.556 106.811   3
  -7  23   4 310.680 76.5300   2
  -7  23   4 375.132 92.2032   3
  -7  23   3 15.6313 47.5670   2
  -7  23   3 106.232 66.0949   3
  -7  23   2 604.646 108.852   3
  -7  23   1-33.9195 79.2660   3
  -7  23   0 224.375 79.3663   3
  -7  23  -1 1043.44 128.781   3
  -7  23  -2 7.13635 61.0433   3
  -7  23  -3 227.360 82.0271   3
  -7  23  -4 406.492 87.3080   3
  -7  23  -5 129.900 78.5388   3
  -7  23  -6 526.369 109.586   3
  -7  23  -7 351.992 98.2037   3
  -7  23  -8 341.752 97.0306   3
  -7  23  -9 502.554 105.168   3
  -7  23 -10 200.118 81.2580   3
  -7  24  11 41.1274 62.9699   2
  -7  24  11 195.463 84.7545   4
  -7  24  10 50.8728 65.0319   2
  -7  24  10 225.648 82.6001   4
  -7  24   9-3.65755 55.9546   2
  -7  24   9 68.0571 84.8873   3
  -7  24   8 28.2457 57.7293   2
  -7  24   8 96.9396 69.3106   3
  -7  24   7 143.273 62.4109   2
  -7  24   7 90.6745 68.3990   3
  -7  24   6 19.0081 55.8646   2
  -7  24   6 72.3611 73.8224   3
  -7  24   5 863.958 112.232   2
  -7  24   5 958.637 133.624   3
  -7  24   4 142.255 62.2961   2
  -7  24   4 127.394 69.9272   3
  -7  24   3 831.020 101.702   2
  -7  24   3 814.867 123.330   3
  -7  24   2 524.632 109.421   3
  -7  24   1-20.3410 60.7038   3
  -7  24   0 141.967 73.0337   3
  -7  24  -1 535.826 96.9387   3
  -7  24  -2 49.5076 69.3057   3
  -7  24  -3 431.433 93.4053   3
  -7  24  -4-33.5094 73.5838   3
  -7  24  -5 324.862 90.7348   3
  -7  24  -6 349.113 95.8060   3
  -7  24  -7 259.218 89.9005   3
  -7  24  -8 60.0646 72.8624   3
  -7  24  -9 587.963 115.369   3
  -7  25  11 18.7607 71.4187   2
  -7  25  10 470.256 108.274   2
  -7  25  10 411.938 107.144   4
  -7  25   9 631.078 113.676   2
  -7  25   8-84.2971 74.7490   2
  -7  25   7 456.476 94.6210   2
  -7  25   7 507.543 114.515   3
  -7  25   6 270.855 80.5754   2
  -7  25   6 248.539 92.6008   3
  -7  25   5 333.776 75.7395   2
  -7  25   5 193.066 71.4167   3
  -7  25   4 169.910 66.0215   2
  -7  25   4 81.2047 73.0733   3
  -7  25   3 8.03560 68.7992   3
  -7  25   2 838.954 130.539   3
  -7  25   1 985.696 135.498   3
  -7  25   0 551.574 98.5670   3
  -7  25  -1 523.875 105.787   3
  -7  25  -2 135.778 71.5509   3
  -7  25  -3 6.24034 58.5681   3
  -7  25  -4 264.554 95.0120   3
  -7  25  -5 264.255 92.0762   3
  -7  25  -6 49.9141 85.2690   3
  -7  25  -7 93.5470 77.6675   3
  -7  26  10 166.931 74.6383   2
  -7  26   9 26.5336 58.7582   2
  -7  26   8 254.177 79.8872   2
  -7  26   7 163.271 77.7264   2
  -7  26   6 86.0628 68.0560   2
  -7  26   5 182.597 71.4716   2
  -7  26   5 232.793 94.3317   3
  -7  26   4 13.4009 70.3261   3
  -7  26   3 51.1944 63.0276   3
  -7  26   2 401.871 102.726   3
  -7  26   1 182.441 78.2205   3
  -7  26   0 194.639 79.1412   3
  -7  26  -1 393.557 103.055   3
  -7  26  -2 139.389 66.8397   3
  -7  26  -3 157.875 80.6451   3
  -7  26  -4 11.6802 75.0860   3
  -7  27   9 435.699 103.691   2
  -7  27   8 288.184 94.2153   2
  -7  27   7 300.121 90.3362   2
  -7  27   6 154.238 67.7468   2
  -7  28   8 117.576 81.0122   2
  -7  28   7 9.13627 66.4028   2
  -7  28   6 133.069 71.9424   2
   8   0  -9 11.8987 26.1104   1
   8   0  -8 2630.21 116.831   1
   8   0  -7-5.60505 29.7424   1
   8   0  -6 1910.64 109.583   1
   8   0  -5 32.2133 35.5752   1
   8   0  -4 38.3394 37.4976   1
   8   0  -3 13.8894 40.3016   1
   8   0  -2 6117.32 227.390   1
  -8   0   2 6473.66 190.953   3
   8   0  -1-59.3862 53.9766   1
  -8   0   1-9.50259 28.4441   3
  -8   0   0 9386.88 233.057   3
   8   0   0 9034.18 296.167   1
  -8   0  -1 28.7913 25.4812   3
   8   0   1-49.8409 57.5077   1
  -8   0  -2 5574.88 166.739   3
   8   0   2 5318.72 228.147   1
  -8   0  -3-39.6380 26.8275   3
   8   0   3-148.720 69.7380   1
  -8   0  -4 630.151 56.3906   3
   8   0   4 448.309 74.2364   1
  -8   0  -5 18.5080 28.4547   3
   8   0   5-61.4514 56.2105   1
   8   0   6 6995.35 278.915   1
   8   0   7-52.5663 54.0632   1
   8   0   8 9272.12 339.108   1
   8   0   9-71.3363 73.5182   1
   8   0  10 18.5317 58.7351   1
   8   0  11-186.488 84.4723   1
   8   0  12 1394.23 138.316   1
   8   0  13-47.1454 60.5525   1
   8   0  14-23.1775 70.2617   1
   8   0  15-21.9240 63.7067   1
   8   0  16 2787.30 205.756   1
   8   0  17 18.5557 78.8185   1
   8   0  18 21.8181 60.5030   1
   8   0  19-60.1809 66.8067   1
   8   1  -8 723.085 62.1669   1
   8  -1  -8 750.167 65.3884   1
   8  -1  -7 411.130 54.9226   1
   8   1  -7 475.915 58.1941   1
   8  -1  -6 125.272 39.8183   1
   8   1  -6 110.700 38.4043   1
   8  -1  -5 32.4022 36.3298   1
   8   1  -5-8.81030 33.2686   1
   8  -1  -4-53.0546 43.0280   1
   8   1  -4-8.79697 38.9890   1
   8   1  -3 343.366 61.4251   1
   8  -1  -3 343.616 61.2588   1
  -8   1   3 322.247 45.9394   3
   8   1  -2 25.3661 44.1127   1
  -8   1   2 91.3405 29.6765   3
   8  -1  -2 47.5949 44.9424   1
   8   1  -1 5054.19 208.609   1
  -8   1   1 5584.97 176.308   3
  -8  -1   1 5500.66 162.663   3
   8  -1  -1 5123.02 210.786   1
   8  -1   0 627.678 79.7411   1
  -8   1   0 741.001 62.4877   3
  -8  -1   0 699.807 54.3199   3
   8   1   0 691.973 84.3637   1
  -8   1  -1 3804.34 140.452   3
  -8  -1  -1 3748.30 127.945   3
   8   1   1 3841.84 186.684   1
   8  -1   1 3972.54 188.837   1
  -8   1  -2 1158.93 74.9395   3
   8   1   2 987.232 101.714   1
  -8  -1  -2 1090.18 64.9005   3
  -8   1  -3 1225.21 77.9304   3
  -8  -1  -3 1230.75 70.8940   3
   8   1   3 1057.47 106.034   1
  -8   1  -4 97.4779 32.3899   3
  -8  -1  -4 122.835 30.3332   3
   8   1   4 44.5141 55.7402   1
  -8   1  -5 123.947 34.6804   3
  -8  -1  -5 158.948 33.9707   3
   8   1   5-51.2035 72.7573   1
   8   1   6 170.679 72.5954   1
   8   1   7 3479.47 200.284   1
   8   1   8 235.807 78.7302   1
   8  -1   9 643.131 98.5669   1
   8   1   9 686.783 98.3605   1
   8   1  10 510.469 95.6716   1
   8  -1  10 268.425 70.4340   1
   8   1  11-84.5685 65.3265   1
   8  -1  11-96.9742 76.1487   1
   8  -1  12-82.5247 71.9575   1
   8   1  12-39.4485 72.5867   1
   8  -1  13 127.110 64.3713   1
   8   1  13 100.993 69.6171   1
   8   1  14 284.922 78.7424   1
   8  -1  14 254.875 79.6661   1
   8  -1  15 116.361 76.4082   1
   8   1  15 224.372 80.1773   1
   8  -1  16 158.976 79.7711   1
   8   1  16 75.1972 74.7927   1
   8   1  17 410.994 94.2482   1
   8  -1  17 508.687 101.354   1
   8   1  18 71.2579 61.0407   1
   8  -1  18 145.286 70.1182   1
   8   1  19 174.303 77.1491   1
   8  -1  19 62.9606 72.5815   1
   8   2  -8 3348.05 132.046   1
   8  -2  -8 3108.58 130.154   1
   8  -2  -7-7.51092 33.5794   1
   8   2  -7-14.1513 33.9822   1
   8  -2  -6 1590.86 101.659   1
   8   2  -6 1659.62 103.787   1
   8  -2  -5 235.025 48.2599   1
   8   2  -5 287.702 53.4671   1
   8   2  -4 327.397 60.4978   1
   8  -2  -4 192.527 46.7017   1
   8  -2  -3-68.4484 52.5135   1
  -8   2   3 8.81039 28.5748   3
   8   2  -3 27.6679 40.9246   1
  -8   2   2 2448.95 117.298   3
   8  -2  -2 2113.64 131.267   1
   8   2  -2 2229.79 131.130   1
   8   2  -1 65.8641 47.8887   1
  -8   2   1 52.6384 30.9533   3
  -8   2   0 4283.00 154.422   3
  -8  -2   0 4035.87 128.632   3
   8   2   0 4023.35 185.557   1
  -8   2  -1-41.9407 31.5610   3
  -8  -2  -1 13.8927 18.8486   3
   8   2   1 7.07976 49.9982   1
   8   2   2 4538.11 207.528   1
  -8   2  -2 4658.28 162.338   3
  -8  -2  -2 4551.38 134.714   3
  -8   2  -3 1311.28 83.2971   3
  -8  -2  -3 1350.91 68.8963   3
   8   2   3 1217.10 113.759   1
  -8   2  -4 226.514 41.6027   3
  -8  -2  -4 215.230 31.3859   3
   8   2   4 172.525 65.8246   1
  -8   2  -5 270.910 48.0134   3
  -8  -2  -5 227.179 33.5011   3
   8   2   5 232.546 70.8544   1
   8   2   6 2429.60 164.046   1
   8   2   7 1798.96 145.561   1
   8   2   8 1583.74 140.981   1
   8   2   9 245.711 77.0755   1
   8   2  10-34.3545 65.7111   1
   8   2  11 199.810 65.2504   1
   8   2  12-101.235 76.0649   1
   8  -2  13 527.180 93.4340   1
   8   2  13 494.599 95.8794   1
   8   2  14 1901.20 163.255   1
   8  -2  14 1855.45 162.489   1
   8  -2  15 132.340 73.8214   1
   8   2  15 131.837 67.0174   1
   8   2  16 142.374 77.0005   1
   8  -2  16-20.7696 74.6839   1
   8   2  17-16.3355 71.0072   1
   8  -2  17 71.5794 63.5105   1
   8  -2  18 62.1121 76.0969   1
   8   2  18 38.3923 63.0753   1
   8  -2  19-51.8476 82.5847   1
   8   2  19 5.24229 59.6188   1
   8  -3  -8-4.01495 29.8864   1
   8  -3  -7 1196.07 83.8418   1
   8   3  -7 1135.43 81.8693   1
   8   3  -6 4354.43 166.237   1
   8  -3  -6 4401.45 172.895   1
   8  -3  -5-42.0222 42.0113   1
   8   3  -5 14.1175 35.2817   1
   8   3  -4 2617.80 137.006   1
  -8   3   4 2886.63 138.087   3
   8  -3  -4 2753.80 139.382   1
  -8   3   3 1314.61 91.7375   3
   8   3  -3 1216.76 99.0864   1
  -8   3   2 233.198 44.5035   3
   8   3  -2 169.730 47.1663   1
  -8   3   1 1925.31 107.039   3
   8   3  -1 2167.93 132.390   1
  -8   3   0 557.547 58.5019   3
   8   3   0 648.472 82.0301   1
  -8   3  -1 3887.50 152.129   3
  -8  -3  -1 3871.29 114.270   3
   8   3   1 3950.77 186.892   1
   8   3   2 580.279 86.7710   1
  -8   3  -2 500.452 55.5417   3
  -8  -3  -2 502.036 39.7489   3
  -8   3  -3 1135.32 82.4202   3
  -8  -3  -3 1182.13 59.8265   3
   8   3   3 1103.54 107.081   1
  -8   3  -4 1403.90 90.9103   3
  -8  -3  -4 1461.84 67.7991   3
   8   3   4 1674.03 131.425   1
  -8  -3  -5 625.187 48.2967   3
  -8   3  -5 429.455 56.0710   3
   8   3   5 356.885 74.8459   1
   8   3   6 1149.07 117.962   1
  -8  -3  -6 1246.86 69.3163   3
   8   3   7-36.8982 65.5771   1
   8   3   8 147.281 67.6695   1
   8   3   9 823.758 107.403   1
   8   3  10 506.576 92.2398   1
   8   3  11 385.010 90.0550   1
   8   3  12 1279.30 133.082   1
   8   3  13 124.887 74.9316   1
   8   3  14 11.7709 65.7471   1
   8   3  15 338.220 86.3623   1
   8  -3  15 359.055 91.6615   1
   8  -3  16-17.6471 71.8969   1
   8   3  16-16.9498 56.0961   1
   8  -3  17 209.934 79.5466   1
   8   3  17 277.731 91.5329   1
   8  -3  18 140.912 82.8162   1
   8   3  18 143.922 80.4097   1
   8  -3  19 231.613 103.545   1
   8   3  19 199.329 79.0918   1
  -8   4  18 554.199 120.864   2
  -8   4  17 80.3105 89.3690   2
  -8   4  16 867.133 132.271   2
  -8   4  15 1031.05 142.638   2
  -8   4  14 195.787 87.6150   2
  -8   4  13 538.112 104.433   2
  -8   4  12 6.20844 57.3952   2
  -8   4  11 1097.20 129.558   2
  -8   4  10 1216.87 130.458   2
  -8   4   9 948.941 109.386   2
   8  -4  -8 994.730 76.3573   1
  -8   4   8 1563.25 135.293   2
   8  -4  -7 1959.12 108.526   1
   8  -4  -6 1799.91 108.899   1
   8   4  -6 1784.94 106.863   1
   8   4  -5 26.0943 36.4379   1
  -8   4   4 468.005 63.7213   3
   8   4  -4 440.492 63.7192   1
   8   4  -3 115.636 45.8008   1
  -8   4   3 117.794 38.1016   3
  -8   4   2 3845.60 158.951   3
   8   4  -2 3735.23 173.015   1
  -8   4   1 69.0694 32.6509   3
   8   4  -1 116.966 51.5387   1
  -8   4   0 4367.18 166.796   3
   8   4   0 4007.45 188.865   1
  -8   4  -1 1305.23 89.6906   3
   8   4   1 1298.51 112.795   1
  -8   4  -2 347.697 51.4709   3
  -8  -4  -2 373.233 29.5253   3
   8   4   2 378.211 75.5145   1
  -8   4  -3 2599.94 126.060   3
  -8  -4  -3 2497.58 81.8585   3
   8   4   3 2665.10 159.500   1
   8   4   4 754.958 97.8726   1
  -8   4  -4 739.122 70.6827   3
  -8  -4  -4 775.323 45.8632   3
  -8   4  -5 1792.74 109.339   3
  -8  -4  -5 1902.18 76.7398   3
   8   4   5 2012.53 144.309   1
  -8  -4  -6 555.482 43.8286   3
   8   4   6 575.349 92.0170   1
   8   4   7 1413.68 131.306   1
   8   4   8 650.084 99.2570   1
   8   4   9 65.5949 65.0716   1
   8   4  10 817.284 111.700   1
   8   4  11 1329.39 134.514   1
   8   4  12 304.559 87.5787   1
   8   4  13 1078.59 127.082   1
   8   4  14 136.284 74.4859   1
   8   4  15 150.694 69.5880   1
   8   4  16 1208.90 136.616   1
   8  -4  17-18.3436 70.6532   1
   8   4  17 78.3440 73.0506   1
   8  -4  18 261.853 95.3699   1
   8   4  18 314.999 94.5617   1
   8   4  19 207.730 78.8370   1
   8  -4  19 133.371 74.1118   1
  -8   5  18 79.9000 89.7778   2
  -8   5  17-58.1863 80.7993   2
  -8   5  16 363.468 106.701   2
  -8   5  15 208.502 90.6446   2
  -8   5  14 2397.01 194.569   2
  -8   5  13 60.8895 78.3516   2
  -8   5  12 2820.01 199.615   2
  -8   5  11 570.818 104.771   2
  -8   5  10 241.051 80.9136   2
  -8   5   9-7.60530 57.6259   2
  -8   5   8 160.952 66.3151   2
   8  -5  -8-28.0067 32.1625   1
  -8   5   7 2051.53 147.862   2
  -8   5   6 3709.39 192.652   2
   8   5  -5 210.533 51.9919   1
  -8   5   5 164.446 52.3059   3
   8   5  -4 2999.78 147.147   1
  -8   5   4 3183.22 155.776   3
  -8   5   3 177.255 47.6578   3
   8   5  -3 133.537 51.6451   1
   8   5  -2 177.829 54.6299   1
  -8   5   2 208.324 47.6796   3
   8   5  -1 495.409 75.5760   1
  -8   5   1 401.738 56.3539   3
   8   5   0 505.687 72.5443   1
  -8   5   0 463.721 60.2822   3
  -8   5  -1 1663.37 103.692   3
   8   5   1 1721.94 127.685   1
  -8   5  -2 2706.47 131.905   3
   8   5   2 2731.14 163.358   1
  -8   5  -3-0.17102 35.3679   3
   8   5   3 86.1140 62.1663   1
  -8   5  -4 5533.18 197.330   3
   8   5   4 5207.34 233.196   1
  -8   5  -5 31.7401 34.2091   3
   8   5   5 34.0490 56.9572   1
   8   5   6 543.201 87.2178   1
   8   5   7 90.2961 58.6125   1
   8   5   8-15.6344 55.9347   1
   8   5   9 477.368 87.6052   1
   8   5  10 1307.70 132.741   1
   8   5  11 51.2010 62.2607   1
   8   5  12 790.376 115.423   1
   8   5  13 142.216 65.3848   1
   8   5  14 638.517 111.153   1
   8   5  15 33.8273 63.4225   1
   8   5  16 18.3792 54.5158   1
   8   5  17 372.228 95.0290   1
   8  -5  18 108.793 70.8244   1
   8   5  18 161.184 81.0407   1
   8   5  19 193.208 81.0732   1
   8  -5  19 97.0467 72.1900   1
  -8   6  18 139.145 95.6997   2
  -8   6  17 194.630 90.7324   2
  -8   6  16 43.1492 78.5269   2
  -8   6  15 65.7664 68.5802   2
  -8   6  14 165.991 82.2717   2
  -8   6  13 1220.29 145.262   2
  -8   6  12 231.848 83.1695   2
  -8   6  11 1313.66 139.024   2
  -8   6  10 20.1325 57.9494   2
  -8   6   9 97.1405 64.0140   2
  -8   6   8 159.747 63.6616   2
  -8   6   7 56.5941 51.7072   2
  -8   6   6 242.073 65.7654   2
  -8   6   5 5500.47 216.994   3
  -8   6   5 5392.58 227.930   2
  -8   6   4 374.431 73.2334   2
  -8   6   4 377.754 61.6575   3
   8   6  -4 357.129 60.0757   1
  -8   6   3 472.291 63.9816   3
   8   6  -3 494.639 67.3423   1
  -8   6   2 379.738 57.1024   3
   8   6  -2 481.851 71.0030   1
  -8   6   1 26.9095 32.4180   3
   8   6  -1 19.3444 45.8545   1
   8   6   0 645.021 85.0469   1
  -8   6   0 526.683 63.7276   3
   8   6   1 531.490 80.2300   1
  -8   6  -1 576.609 68.1800   3
  -8   6  -2 34.2482 33.5060   3
   8   6   2 54.1777 54.7711   1
  -8   6  -3 3082.29 147.193   3
   8   6   3 3230.10 176.716   1
  -8   6  -4 15.3873 33.0612   3
   8   6   4 134.431 67.0123   1
  -8   6  -5 1981.73 119.598   3
   8   6   5 1851.50 140.688   1
   8   6   6 316.531 76.6505   1
  -8   6  -6 448.553 64.5925   3
   8   6   7 216.955 71.7465   1
   8   6   8 5.05982 56.2490   1
   8   6   9-56.8836 59.6706   1
   8   6  10-37.4918 59.7507   1
   8   6  11 1196.43 131.866   1
   8   6  12 42.9411 69.5227   1
   8   6  13 674.045 105.434   1
   8   6  14 100.673 73.1267   1
   8   6  15 334.452 94.2785   1
   8   6  16 24.6437 54.6192   1
   8   6  17 28.2532 60.7111   1
   8   6  18 26.3329 70.6379   1
   8   6  19 171.482 84.8152   1
  -8   7  18 258.748 107.329   2
  -8   7  17 65.5988 85.3053   2
  -8   7  16 256.159 86.4282   2
  -8   7  15 25.4184 72.8262   2
  -8   7  14 2386.69 196.159   2
  -8   7  13 85.6358 65.6426   2
  -8   7  12 2829.28 200.857   2
  -8   7  11 188.521 83.5409   2
  -8   7  10 1238.53 133.075   2
  -8   7   9-27.0620 57.5673   2
  -8   7   8 1291.52 125.115   2
  -8   7   7 158.445 65.4588   2
  -8   7   6 1866.14 129.370   3
  -8   7   6 1600.38 129.194   2
  -8   7   5 132.125 58.7678   2
  -8   7   5 53.3232 44.5816   3
  -8   7   4 5679.91 221.268   3
  -8   7   4 5744.23 225.389   2
  -8   7   3 258.942 63.6476   2
  -8   7   3 177.677 52.6192   3
   8   7  -3 122.660 50.4099   1
  -8   7   2 1133.55 95.0924   3
   8   7  -2 1288.97 102.754   1
  -8   7   1 172.842 44.7139   3
   8   7  -1 231.574 62.6116   1
  -8   7   0 48.3775 35.9460   3
   8   7   0 182.774 53.9581   1
  -8   7  -1-50.6744 43.2180   3
   8   7   1 74.8069 54.2775   1
  -8   7  -2 2897.17 145.113   3
   8   7   2 2944.18 168.533   1
  -8   7  -3 1155.04 93.8719   3
   8   7   3 1079.60 110.538   1
  -8   7  -4 2185.60 128.413   3
   8   7   4 2391.78 156.514   1
  -8   7  -5 175.764 51.6687   3
   8   7   5 260.358 73.8120   1
  -8   7  -6 1472.58 109.232   3
   8   7   6 1300.83 124.169   1
   8   7   7 20.0849 55.7442   1
   8   7   8 323.246 82.6582   1
   8   7   9-34.2610 66.0172   1
   8   7  10 1213.61 128.996   1
   8   7  11-72.0604 62.2915   1
   8   7  12 1148.55 127.658   1
   8   7  13 141.537 74.5130   1
   8   7  14 568.910 100.574   1
   8   7  15-92.9490 77.4522   1
   8   7  16 171.643 73.9376   1
   8   7  17 3.36132 63.6157   1
   8   7  18 274.078 89.6318   1
  -8   8  17 38.0835 71.0671   2
  -8   8  16 412.752 108.924   2
  -8   8  15 330.593 97.1875   2
  -8   8  14 125.882 84.8990   2
  -8   8  13 519.412 107.137   2
  -8   8  12 679.243 114.639   2
  -8   8  11 370.260 85.2028   2
  -8   8  10 200.125 78.2634   2
  -8   8   9 44.1189 62.1371   2
  -8   8   8 2037.20 155.152   2
  -8   8   7 62.0120 53.9116   2
  -8   8   7 58.7117 46.9698   4
  -8   8   6 17.5587 42.0978   3
  -8   8   6-3.58906 48.3925   2
  -8   8   6 63.7153 47.9295   4
  -8   8   5 1039.85 101.112   2
  -8   8   5 1073.50 102.043   3
  -8   8   5 966.487 92.3051   4
  -8   8   4 543.718 80.3084   2
  -8   8   4 549.408 76.0628   3
  -8   8   4 418.010 62.3104   4
  -8   8   3 1253.40 102.929   3
  -8   8   3 1441.88 110.802   2
  -8   8   3 1297.87 94.3524   4
  -8   8   2 499.331 66.5723   2
  -8   8   2 361.312 61.5770   3
   8   8  -2 379.122 63.6350   1
  -8   8   2 402.627 53.4519   4
  -8   8   1 80.3913 41.2730   3
   8   8  -1 62.1730 46.8921   1
  -8   8   1 78.5688 31.7385   4
  -8   8   0 558.126 71.8894   3
   8   8   0 654.749 86.8605   1
  -8   8   0 652.178 58.4937   4
  -8   8  -1 1704.39 116.541   3
   8   8   1 1582.24 121.774   1
  -8   8  -1 1635.90 83.6278   4
  -8   8  -2 673.646 76.5990   3
   8   8   2 755.536 93.7049   1
  -8   8  -3 1783.09 119.113   3
   8   8   3 2006.72 143.728   1
  -8   8  -4 241.918 57.1802   3
   8   8   4 138.639 55.8366   1
  -8   8  -5 1618.27 115.002   3
   8   8   5 1525.05 133.521   1
  -8   8  -6 397.786 67.5409   3
   8   8   6 372.290 81.3039   1
   8   8   7 400.751 83.7629   1
   8   8   8 352.311 77.1185   1
   8   8   9 115.044 69.6525   1
   8   8  10 81.4919 62.3911   1
   8   8  11 711.363 105.613   1
   8   8  12 137.574 73.0288   1
   8   8  13 1274.64 136.734   1
   8   8  14 15.0473 55.6457   1
   8   8  15 600.360 105.796   1
   8   8  16 185.976 75.5755   1
   8   8  17 112.225 66.9752   1
   8   8  18 220.360 82.5599   1
  -8   9  17 151.753 92.9254   2
  -8   9  16 181.431 79.5758   2
  -8   9  15 138.762 85.2369   2
  -8   9  14 1438.63 157.556   2
  -8   9  13 61.5927 75.3116   2
  -8   9  12 1856.89 165.096   2
  -8   9  11 587.947 97.2651   2
  -8   9  10 156.584 62.2870   2
  -8   9   9 1080.84 120.382   2
  -8   9   9 1031.24 111.006   4
  -8   9   8 64.2387 56.5294   2
  -8   9   8 62.3555 50.4438   4
  -8   9   7-13.2345 47.6743   3
  -8   9   7-9.55404 47.6755   2
  -8   9   7 31.5036 45.6202   4
  -8   9   6 4768.82 219.420   3
  -8   9   6 5021.65 224.288   2
  -8   9   6 4910.69 212.347   4
  -8   9   5 255.978 61.1346   3
  -8   9   5 426.978 71.7943   2
  -8   9   5 284.981 60.1026   4
  -8   9   4 4494.75 205.291   3
  -8   9   4 4784.19 206.963   2
  -8   9   4 4816.49 193.997   4
  -8   9   3 362.926 67.5604   3
  -8   9   3 410.586 61.1916   4
  -8   9   3 361.681 63.4840   2
  -8   9   2 468.300 67.1045   2
  -8   9   2 340.336 63.4443   3
  -8   9   2 446.213 56.9275   4
  -8   9   1 309.738 54.4013   2
   8   9  -1 284.840 61.1378   1
  -8   9   1 241.153 54.3693   3
  -8   9   1 370.938 49.7491   4
  -8   9   0 97.0610 41.6102   3
   8   9   0 196.884 58.5382   1
  -8   9   0 188.665 38.1073   4
  -8   9  -1 13.2479 39.8467   3
   8   9   1 151.293 60.2803   1
  -8   9  -1 69.8840 29.2708   4
  -8   9  -2 2700.31 147.285   3
   8   9   2 2496.59 157.401   1
  -8   9  -3 242.282 56.2290   3
   8   9   3 277.997 72.1283   1
  -8   9  -4 2293.34 139.034   3
   8   9   4 2137.39 155.650   1
  -8   9  -5 40.5704 40.5161   3
   8   9   5 54.7616 63.3768   1
  -8   9  -6 155.981 56.6799   3
   8   9   6 122.669 57.8268   1
   8   9   7 534.794 92.3510   1
   8   9   8-66.6897 66.4879   1
   8   9   9 322.979 80.9827   1
   8   9  10 1509.86 142.235   1
   8   9  11 3.29014 60.5743   1
   8   9  12 1197.28 135.694   1
   8   9  13 9.70194 62.8765   1
   8   9  14 484.306 97.4091   1
   8   9  15 68.1639 68.9536   1
   8   9  16-2.86639 62.9281   1
   8   9  17 115.849 68.8527   1
   8   9  18 251.068 81.5936   1
  -8  10  17 5.69027 78.5147   2
  -8  10  16 595.559 121.723   2
  -8  10  15-50.2799 69.6960   2
  -8  10  14 242.214 88.0937   2
  -8  10  13 552.725 104.235   2
  -8  10  12 149.605 76.0482   2
  -8  10  11 823.891 115.388   2
  -8  10  11 913.642 114.547   4
  -8  10  10 579.583 94.9684   2
  -8  10  10 537.555 91.1568   4
  -8  10   9 38.6505 52.2039   2
  -8  10   9 49.7476 57.3506   4
  -8  10   8 952.986 111.101   2
  -8  10   8 876.774 101.821   4
  -8  10   7 300.635 67.6831   3
  -8  10   7 325.434 74.3451   2
  -8  10   7 435.720 76.7460   4
  -8  10   6 3261.30 183.850   3
  -8  10   6 3444.48 187.472   2
  -8  10   6 3610.54 182.655   4
  -8  10   5 1147.59 109.750   3
  -8  10   5 1138.39 109.728   2
  -8  10   5 1312.98 109.267   4
  -8  10   4 452.889 76.4824   3
  -8  10   4 535.589 76.5721   2
  -8  10   4 457.098 70.0239   4
  -8  10   3 2012.69 135.686   3
  -8  10   3 1877.89 126.885   2
  -8  10   3 1815.68 115.227   4
  -8  10   2 347.685 65.0734   3
  -8  10   2 326.413 53.2656   4
  -8  10   2 420.001 64.2285   2
  -8  10   1 348.247 56.8783   2
  -8  10   1 273.219 60.2110   3
  -8  10   1 352.110 51.2094   4
  -8  10   0 2207.85 139.077   3
  -8  10   0 2354.07 122.287   2
  -8  10   0 2444.71 115.434   4
  -8  10  -1 497.648 73.1911   3
   8  10   1 416.392 75.3724   1
  -8  10  -1 513.403 53.0024   4
  -8  10  -2 454.479 69.6410   3
   8  10   2 621.812 86.4918   1
  -8  10  -3 95.2491 49.3307   3
   8  10   3 84.7398 50.7852   1
  -8  10  -4 349.788 67.6754   3
   8  10   4 299.737 72.8698   1
  -8  10  -5 4648.72 203.566   3
   8  10   5 4466.93 218.539   1
  -8  10  -6 646.381 86.0879   3
   8  10   6 691.693 97.1081   1
   8  10   7 236.828 74.4381   1
   8  10   8 931.610 113.377   1
   8  10   9 64.6752 63.8090   1
   8  10  10 893.606 115.546   1
   8  10  11 222.391 80.6870   1
   8  10  12 160.672 70.4196   1
   8  10  13 507.745 92.7307   1
   8  10  14 111.793 70.5209   1
   8  10  15 403.151 90.8161   1
   8  10  16 1040.10 133.883   1
   8  10  17 182.515 74.0438   1
   8  10  18 89.1047 72.2849   1
  -8  11  17 111.467 94.3921   2
  -8  11  16-95.8771 88.3076   2
  -8  11  15 80.3050 71.3030   2
  -8  11  14 280.984 87.8684   2
  -8  11  13-68.7883 72.7675   2
  -8  11  12 529.529 101.447   2
  -8  11  12 569.562 103.103   4
  -8  11  11-30.9434 69.5625   2
  -8  11  11 20.9516 55.4425   4
  -8  11  10 98.3988 65.2515   2
  -8  11  10-37.5768 59.3914   4
  -8  11   9 163.581 70.8117   2
  -8  11   9 303.733 73.1833   4
  -8  11   8 500.238 89.4861   2
  -8  11   8 544.280 81.9078   4
  -8  11   7 2408.76 161.381   2
  -8  11   7 2089.34 152.536   3
  -8  11   7 2188.29 149.415   4
  -8  11   6 684.396 93.9756   3
  -8  11   6 737.304 95.0510   2
  -8  11   6 789.098 92.8601   4
  -8  11   5 11.6859 45.0154   3
  -8  11   5 112.564 54.2308   2
  -8  11   5 45.1917 43.0870   4
  -8  11   4 1307.75 117.408   3
  -8  11   4 1258.39 108.547   2
  -8  11   4 1265.25 102.804   4
  -8  11   3 2296.85 149.297   3
  -8  11   3 2062.03 131.513   2
  -8  11   3 2099.35 128.009   4
  -8  11   2 1340.82 116.878   3
  -8  11   2 1376.72 104.621   2
  -8  11   2 1574.60 105.478   4
  -8  11   1 2354.45 147.798   3
  -8  11   1 2546.68 134.602   2
  -8  11   1 2422.71 124.403   4
  -8  11   0 707.100 86.7046   3
  -8  11   0 710.135 65.6720   4
  -8  11   0 730.024 71.2114   2
  -8  11  -1 97.8482 39.1003   2
  -8  11  -1 7.79198 42.0754   3
  -8  11  -1 61.9480 28.3604   4
  -8  11  -2 458.635 72.7892   3
   8  11   2 548.724 84.7488   1
  -8  11  -3 3607.32 182.913   3
   8  11   3 3878.58 198.743   1
  -8  11  -4 856.843 93.5789   3
   8  11   4 881.503 105.364   1
  -8  11  -5 1730.09 129.446   3
   8  11   5 1851.42 140.706   1
  -8  11  -6 875.913 97.5617   3
   8  11   6 937.294 106.462   1
   8  11   7 80.2008 64.4955   1
  -8  11  -7 98.7673 55.5962   3
   8  11   8 776.992 109.082   1
   8  11   9 414.768 86.7273   1
   8  11  10 844.666 108.876   1
   8  11  11 139.567 62.8410   1
   8  11  12 473.404 92.6374   1
   8  11  13-2.21259 65.2285   1
   8  11  14 391.354 92.0700   1
   8  11  15 38.8865 59.3688   1
   8  11  16 295.654 96.2277   1
   8  11  17 232.642 77.1555   1
  -8  12  16 804.570 134.863   2
  -8  12  15 93.3698 85.6478   2
  -8  12  14 257.152 89.1585   2
  -8  12  13-38.0212 64.4983   2
  -8  12  13-14.6926 55.4039   4
  -8  12  12-8.66728 67.4671   2
  -8  12  12 134.646 74.1018   4
  -8  12  11 542.135 96.8331   2
  -8  12  11 712.475 105.797   4
  -8  12  10 1350.27 137.443   2
  -8  12  10 1284.15 128.394   4
  -8  12   9 360.943 82.8142   2
  -8  12   9 498.410 88.4300   4
  -8  12   8 4817.71 238.464   2
  -8  12   8 4681.75 237.366   3
  -8  12   8 4740.20 230.785   4
  -8  12   7 875.301 104.175   3
  -8  12   7 879.503 105.116   2
  -8  12   7 957.883 104.084   4
  -8  12   6 234.529 67.2956   3
  -8  12   6 176.052 56.7058   2
  -8  12   6 316.634 66.0398   4
  -8  12   5-29.8304 52.4016   3
  -8  12   5 37.8648 49.6839   2
  -8  12   5-13.2656 41.4479   4
  -8  12   4 294.631 70.0316   3
  -8  12   4 224.494 59.2727   2
  -8  12   4 248.595 60.7657   4
  -8  12   3 18.7072 47.1802   3
  -8  12   3 1.67012 41.8884   2
  -8  12   3 2.70386 35.1720   4
  -8  12   2 3401.42 186.891   3
  -8  12   2 4043.17 179.558   2
  -8  12   2 4240.94 177.225   4
  -8  12   1 167.553 54.9557   3
  -8  12   1 126.513 50.0888   2
  -8  12   1 86.1479 38.8035   4
  -8  12   0 1457.10 119.832   3
  -8  12   0 1475.57 99.5510   2
  -8  12   0 1539.64 97.9912   4
  -8  12  -1 518.313 76.0839   3
  -8  12  -1 644.383 62.1133   4
  -8  12  -1 669.988 65.1954   2
  -8  12  -2 539.922 80.1983   3
  -8  12  -3-2.01865 42.3408   3
  -8  12  -4 344.502 72.8001   3
  -8  12  -5 146.923 62.0579   3
   8  12   5 205.981 64.0693   1
  -8  12  -6 130.089 60.2235   3
   8  12   6-6.11645 58.2951   1
  -8  12  -7 1244.77 115.028   3
   8  12   7 1071.28 113.311   1
   8  12   8 2467.75 175.112   1
   8  12   9 280.545 85.4001   1
   8  12  10 1851.59 153.739   1
   8  12  11-5.23948 54.3488   1
   8  12  12 228.017 79.6216   1
   8  12  13 86.9972 62.7574   1
   8  12  14 663.332 108.489   1
   8  12  15 201.631 71.6669   1
   8  12  16 640.275 113.903   1
   8  12  17-54.0535 61.4009   1
  -8  13  16 131.501 79.1363   2
  -8  13  15 99.2268 79.1787   2
  -8  13  14-78.3606 82.0697   2
  -8  13  14 81.2078 64.5883   4
  -8  13  13-20.1215 73.3702   2
  -8  13  13 181.240 82.5545   4
  -8  13  12-31.1430 68.7319   2
  -8  13  12 37.2930 56.1316   4
  -8  13  11 187.909 74.4139   2
  -8  13  11 243.371 82.2290   4
  -8  13  10 43.9750 63.1216   2
  -8  13  10 107.918 58.0692   4
  -8  13   9 837.242 114.559   2
  -8  13   9 899.025 113.775   4
  -8  13   8 337.653 83.4501   3
  -8  13   8 143.668 55.7129   2
  -8  13   8 203.317 65.3026   4
  -8  13   7 1551.94 134.883   2
  -8  13   7 1478.39 135.936   3
  -8  13   7 1516.84 129.955   4
  -8  13   6 107.467 56.0229   3
  -8  13   6 67.9819 47.2335   2
  -8  13   6 70.3299 52.9061   4
  -8  13   5 436.498 82.5409   3
  -8  13   5 268.047 63.0216   2
  -8  13   5 392.382 70.4961   4
  -8  13   4 15.1579 48.5362   3
  -8  13   4 19.9024 45.9276   2
  -8  13   4 53.0724 45.6993   4
  -8  13   3 56.1299 52.1028   3
  -8  13   3-52.0374 48.6332   2
  -8  13   3 24.3883 41.5953   4
  -8  13   2 64.7237 51.4933   3
  -8  13   2-48.8853 47.6764   2
  -8  13   2-75.1038 46.8611   4
  -8  13   1 108.858 53.1622   3
  -8  13   1 141.429 46.7912   2
  -8  13   1 102.302 39.7300   4
  -8  13   0 125.199 55.7451   3
  -8  13   0 120.100 38.8132   4
  -8  13   0 170.903 42.3786   2
  -8  13  -1 1323.56 116.232   3
  -8  13  -2 212.726 61.2747   3
  -8  13  -3 1245.60 117.670   3
  -8  13  -4 243.731 60.1272   3
  -8  13  -5 548.304 83.0125   3
  -8  13  -6 22.0903 53.5165   3
  -8  13  -7 1487.01 129.290   3
   8  13   8 111.933 60.0998   1
   8  13   9 1433.28 139.162   1
   8  13  10 109.564 69.6481   1
   8  13  11 675.936 108.668   1
   8  13  12 36.2769 65.2195   1
   8  13  13 11.4246 68.4339   1
   8  13  14 25.3063 69.0614   1
  -8  14  16 551.125 116.628   2
  -8  14  15 212.468 81.1988   2
  -8  14  15 179.787 75.2337   4
  -8  14  14 105.328 70.9761   2
  -8  14  14 243.386 89.9945   4
  -8  14  13 161.054 80.8455   2
  -8  14  13 192.887 75.6884   4
  -8  14  12 25.5609 61.1629   2
  -8  14  12 46.4927 65.0843   4
  -8  14  11 200.875 74.8995   2
  -8  14  11 209.456 71.0437   4
  -8  14  10 3201.61 212.271   2
  -8  14  10 3292.08 208.155   4
  -8  14   9 73.9654 63.3320   2
  -8  14   9 197.118 70.1884   4
  -8  14   8 3290.73 200.171   2
  -8  14   8 3467.92 212.587   3
  -8  14   8 3414.67 199.603   4
  -8  14   7 1.69828 59.7038   3
  -8  14   7 82.8708 57.1963   2
  -8  14   7-23.4532 52.1298   4
  -8  14   6 536.838 91.6810   3
  -8  14   6 435.901 82.3636   2
  -8  14   6 580.120 88.0755   4
  -8  14   5-49.8131 52.3151   3
  -8  14   5-63.9978 54.1739   2
  -8  14   5-40.8970 49.6227   4
  -8  14   4 581.850 89.1470   3
  -8  14   4 540.725 80.5140   2
  -8  14   4 572.889 78.3051   4
  -8  14   3 67.7831 53.2705   3
  -8  14   3 77.7905 47.4742   2
  -8  14   3 55.4857 39.4105   4
  -8  14   2 1112.68 97.9294   2
  -8  14   2 1083.74 109.838   3
  -8  14   2 1125.47 100.827   4
  -8  14   1 111.160 52.7744   3
  -8  14   1 129.587 43.8795   2
  -8  14   1 179.999 50.9011   4
  -8  14   0 3291.28 186.239   3
  -8  14   0 3516.08 157.000   2
  -8  14  -1 282.665 62.9299   3
  -8  14  -2 335.337 67.9775   3
  -8  14  -3 44.6999 51.0807   3
  -8  14  -4 57.5677 55.0657   3
  -8  14  -5 21.8261 51.3982   3
  -8  14  -6 1460.56 129.467   3
  -8  14  -7 172.440 71.7290   3
  -8  14  -8 2241.16 159.335   3
  -8  15  16-18.1751 75.1887   4
  -8  15  15 110.207 69.9420   2
  -8  15  15 387.292 109.682   4
  -8  15  14 134.559 86.7403   2
  -8  15  14 263.664 87.1622   4
  -8  15  13 17.4345 71.8655   2
  -8  15  13-82.6920 77.8373   4
  -8  15  12-45.8463 71.8441   2
  -8  15  12 201.545 79.0962   4
  -8  15  11-78.6483 74.5813   2
  -8  15  11 38.1005 67.0046   4
  -8  15  10 385.006 88.8492   2
  -8  15  10 560.853 96.3436   4
  -8  15   9 897.476 118.751   2
  -8  15   9 1111.25 125.211   4
  -8  15   8 80.3215 59.9655   3
  -8  15   8-16.5787 53.0032   2
  -8  15   8 65.3028 60.1972   4
  -8  15   7 415.807 84.6969   3
  -8  15   7 381.623 81.1344   2
  -8  15   7 353.085 71.2976   4
  -8  15   6-60.1810 63.1853   3
  -8  15   6-41.5736 55.1617   2
  -8  15   6-34.4159 47.0687   4
  -8  15   5 155.661 67.9973   3
  -8  15   5 155.667 57.2125   2
  -8  15   5 120.876 51.3467   4
  -8  15   4 74.6558 63.0752   3
  -8  15   4 47.5311 44.6064   2
  -8  15   4 130.298 49.6885   4
  -8  15   3 37.3758 46.5448   3
  -8  15   3 75.2240 47.4710   2
  -8  15   3 14.3616 41.8700   4
  -8  15   2 1849.79 145.530   3
  -8  15   2 1650.08 120.828   2
  -8  15   2 1883.54 126.865   4
  -8  15   1 704.939 96.0561   3
  -8  15   1 753.180 79.7703   2
  -8  15   0 111.999 58.3235   3
  -8  15  -1 1176.26 116.986   3
  -8  15  -2 243.730 63.7595   3
  -8  15  -3 663.344 92.8764   3
  -8  15  -4 35.7166 50.4820   3
  -8  15  -5 224.663 73.4454   3
  -8  15  -6 657.256 100.520   3
  -8  15  -7 2061.07 157.698   3
  -8  15  -8 112.155 60.3374   3
  -8  16  15-29.3261 70.0281   2
  -8  16  15 108.281 90.0448   4
  -8  16  14 17.8379 62.4878   2
  -8  16  14-40.1346 68.9687   4
  -8  16  13-24.6710 78.8895   2
  -8  16  13 26.6030 67.1671   4
  -8  16  12 616.383 113.851   2
  -8  16  12 559.324 107.875   4
  -8  16  11-35.2685 59.0964   2
  -8  16  11 63.8410 58.5592   4
  -8  16  10 1523.10 153.383   2
  -8  16  10 1576.08 151.337   4
  -8  16   9 565.547 105.142   3
  -8  16   9 320.383 81.0582   2
  -8  16   9 434.034 86.3702   4
  -8  16   8 1141.27 132.498   3
  -8  16   8 1140.73 123.841   2
  -8  16   8 1190.65 128.003   4
  -8  16   7 750.029 109.376   3
  -8  16   7 657.466 94.6119   2
  -8  16   7 756.895 101.818   4
  -8  16   6 340.859 82.9177   3
  -8  16   6 443.129 82.4257   2
  -8  16   6 440.589 81.3348   4
  -8  16   5 322.081 75.9047   3
  -8  16   5 384.617 79.7943   2
  -8  16   5 492.411 81.3666   4
  -8  16   4 354.451 77.8982   3
  -8  16   4 318.129 69.5083   2
  -8  16   4 309.162 68.9242   4
  -8  16   3 975.017 112.139   3
  -8  16   3 1053.57 99.4319   2
  -8  16   3 939.477 100.950   4
  -8  16   2 1373.00 132.367   3
  -8  16   2 1425.30 113.194   2
  -8  16   1-58.0293 68.9291   3
  -8  16   1 4.18633 36.7125   2
  -8  16   0 1129.92 122.272   3
  -8  16  -1-47.1068 62.1543   3
  -8  16  -2 154.433 62.3795   3
  -8  16  -3 202.687 67.8459   3
  -8  16  -4 331.710 76.4849   3
  -8  16  -5 264.876 67.7762   3
  -8  16  -6 1741.99 146.771   3
  -8  16  -7 81.2391 60.2593   3
  -8  16  -8 2592.48 181.928   3
  -8  17  15 342.478 107.956   4
  -8  17  14 154.924 78.0028   2
  -8  17  14 140.829 82.2074   4
  -8  17  13 142.389 75.0913   2
  -8  17  13 140.142 68.6091   4
  -8  17  12 388.187 99.1384   2
  -8  17  12 509.970 108.535   4
  -8  17  11 79.9800 61.8631   2
  -8  17  11 222.752 79.4816   4
  -8  17  10 369.693 89.9701   2
  -8  17  10 543.807 102.699   4
  -8  17   9 204.888 75.6835   3
  -8  17   9 199.243 74.7593   2
  -8  17   9 190.882 73.8966   4
  -8  17   8-4.62482 52.1140   3
  -8  17   8 11.7012 55.3305   2
  -8  17   8 49.7866 54.2302   4
  -8  17   7 320.902 80.8517   3
  -8  17   7 204.909 67.4097   2
  -8  17   7 237.323 70.7837   4
  -8  17   6 376.431 85.0582   3
  -8  17   6 248.830 68.8066   2
  -8  17   6 492.354 90.7148   4
  -8  17   5 569.934 94.6611   3
  -8  17   5 659.044 91.7170   2
  -8  17   5 670.895 92.8366   4
  -8  17   4 1806.44 136.218   2
  -8  17   4 1638.16 146.642   3
  -8  17   4 1722.88 134.873   4
  -8  17   3-91.2527 60.5810   3
  -8  17   3-41.0781 42.9317   2
  -8  17   2 1213.11 107.096   2
  -8  17   2 1266.77 130.323   3
  -8  17   1-28.7044 72.4744   3
  -8  17   0 17.8752 58.9544   3
  -8  17  -1 1924.87 153.958   3
  -8  17  -2 227.981 65.7819   3
  -8  17  -3 396.576 79.5720   3
  -8  17  -4 1441.82 136.458   3
  -8  17  -5 116.118 62.0680   3
  -8  17  -6 950.450 117.924   3
  -8  17  -7 551.671 96.9359   3
  -8  17  -8 183.684 77.7785   3
  -8  17  -9 1085.33 126.869   3
  -8  18  14-40.7414 63.4652   2
  -8  18  14 19.2192 78.6217   4
  -8  18  13 73.8422 71.4471   2
  -8  18  13 39.5332 66.7671   4
  -8  18  12 106.330 79.5480   2
  -8  18  12 43.8818 78.4003   4
  -8  18  11-62.9139 70.1958   2
  -8  18  11-8.03779 65.5977   4
  -8  18  10 386.428 88.1341   2
  -8  18  10 378.494 87.5106   4
  -8  18   9 108.140 70.7661   2
  -8  18   9 225.939 89.5768   3
  -8  18   9 103.695 62.6082   4
  -8  18   8 54.4632 57.3032   2
  -8  18   8 78.5602 69.9549   3
  -8  18   8 207.984 74.8476   4
  -8  18   7 1156.85 132.905   3
  -8  18   7 993.700 118.748   2
  -8  18   7 1071.53 119.913   4
  -8  18   6-68.2844 67.7992   3
  -8  18   6-109.452 67.3617   2
  -8  18   6-33.0749 51.7796   4
  -8  18   5 510.365 92.7735   3
  -8  18   5 525.375 87.0585   2
  -8  18   5 732.751 101.471   4
  -8  18   4 164.507 68.9957   3
  -8  18   4 138.365 59.9024   2
  -8  18   3 422.315 85.6505   3
  -8  18   3 358.111 71.6622   2
  -8  18   2 474.918 83.1840   3
  -8  18   2 438.700 68.7616   2
  -8  18   1-11.1237 57.3142   3
  -8  18   0-5.86934 56.3837   3
  -8  18  -1-79.5972 62.7303   3
  -8  18  -2-36.9865 63.6678   3
  -8  18  -3 561.434 98.3335   3
  -8  18  -4-69.5844 52.8979   3
  -8  18  -5 373.309 88.2296   3
  -8  18  -6 1102.51 122.791   3
  -8  18  -7 169.636 77.1469   3
  -8  18  -8 111.228 71.9893   3
  -8  18  -9 291.832 84.3841   3
  -8  19  14 390.040 110.137   4
  -8  19  13 70.6917 76.8084   2
  -8  19  13 181.842 79.6794   4
  -8  19  12 574.103 113.361   2
  -8  19  12 813.003 129.005   4
  -8  19  11 105.397 73.1919   2
  -8  19  11 168.166 84.8982   4
  -8  19  10 445.116 98.9341   2
  -8  19  10 615.904 109.000   4
  -8  19   9 270.671 81.0862   2
  -8  19   9 347.003 87.3490   3
  -8  19   9 143.937 70.9438   4
  -8  19   8-65.6736 65.6790   2
  -8  19   8 25.9258 63.3118   3
  -8  19   8 64.0480 64.6995   4
  -8  19   7 342.730 78.9024   2
  -8  19   7 114.228 67.6697   3
  -8  19   7 250.267 77.2631   4
  -8  19   6 1394.47 132.837   2
  -8  19   6 1468.61 154.402   3
  -8  19   6 1401.76 137.409   4
  -8  19   5 84.0814 69.3276   3
  -8  19   5 175.209 61.6810   2
  -8  19   5 114.446 60.8427   4
  -8  19   4 2773.03 175.356   2
  -8  19   4 2724.83 194.036   3
  -8  19   3 56.2161 52.2010   3
  -8  19   3 71.0623 48.5351   2
  -8  19   2 1114.60 128.048   3
  -8  19   1 171.306 68.7893   3
  -8  19   0-34.4663 68.5062   3
  -8  19  -1 722.647 107.372   3
  -8  19  -2 1137.77 125.618   3
  -8  19  -3 515.631 92.5487   3
  -8  19  -4 1965.92 166.048   3
  -8  19  -5 76.3217 69.4677   3
  -8  19  -6 534.764 100.628   3
  -8  19  -7 27.0050 68.5591   3
  -8  19  -8 211.755 86.1174   3
  -8  19  -9 582.645 110.922   3
  -8  19 -10 982.826 129.360   3
  -8  20  13 21.3796 76.4079   2
  -8  20  13 85.2550 73.2295   4
  -8  20  12 104.520 78.6775   2
  -8  20  12 221.064 82.3760   4
  -8  20  11 48.7665 61.5482   2
  -8  20  11 116.420 81.4218   4
  -8  20  10-61.1634 69.5348   2
  -8  20  10 83.3507 66.0887   4
  -8  20   9-171.645 81.6578   2
  -8  20   9 30.9918 64.5138   3
  -8  20   9-89.6579 58.6186   4
  -8  20   8 108.206 61.4768   2
  -8  20   8 137.990 66.9643   3
  -8  20   8 144.292 62.6777   4
  -8  20   7 424.245 88.8113   2
  -8  20   7 430.249 98.6075   3
  -8  20   7 399.220 90.2707   4
  -8  20   6 11.9044 54.8971   2
  -8  20   6-2.95224 74.6711   3
  -8  20   6 166.234 73.7663   4
  -8  20   5 1010.43 114.554   2
  -8  20   5 976.256 124.179   3
  -8  20   4 223.627 80.6241   3
  -8  20   4 257.230 70.0039   2
  -8  20   3 73.5646 57.5747   3
  -8  20   2 301.529 82.5665   3
  -8  20   1 602.558 104.267   3
  -8  20   0 112.005 68.1867   3
  -8  20  -1 2.76581 53.5115   3
  -8  20  -2 444.436 94.7034   3
  -8  20  -3 495.023 97.0601   3
  -8  20  -4 443.503 98.0429   3
  -8  20  -5 554.303 99.7883   3
  -8  20  -6 81.1976 64.1282   3
  -8  20  -7 257.148 87.9732   3
  -8  20  -8 143.154 80.3411   3
  -8  20  -9 133.628 80.7717   3
  -8  20 -10 278.865 87.7633   3
  -8  20 -11 642.092 108.578   3
  -8  21  12 806.540 127.613   2
  -8  21  12 693.739 126.162   4
  -8  21  11-54.1872 75.7569   2
  -8  21  11-53.8994 69.3381   4
  -8  21  10-51.4828 79.5540   2
  -8  21  10 174.193 80.1936   4
  -8  21   9-62.6084 77.2200   2
  -8  21   9 24.8022 74.8082   3
  -8  21   9-7.13635 61.8727   4
  -8  21   8 133.107 74.3098   2
  -8  21   8-53.4236 69.4304   3
  -8  21   8 67.8818 66.9255   4
  -8  21   7 161.408 72.0202   2
  -8  21   7 137.656 71.8759   3
  -8  21   7 125.983 72.2511   4
  -8  21   6 591.846 98.6869   2
  -8  21   6 517.914 104.916   3
  -8  21   6 618.709 97.0965   4
  -8  21   5 305.814 75.6490   2
  -8  21   5 409.741 101.036   3
  -8  21   4 1466.14 132.545   2
  -8  21   4 1494.72 152.605   3
  -8  21   3 210.277 79.3574   3
  -8  21   2 601.796 109.584   3
  -8  21   1 69.1593 68.2004   3
  -8  21   0-141.070 71.9407   3
  -8  21  -1-55.6262 75.1048   3
  -8  21  -2 1243.65 137.128   3
  -8  21  -3 212.036 78.4946   3
  -8  21  -4 1496.15 149.475   3
  -8  21  -5 706.364 113.999   3
  -8  21  -6 589.803 109.173   3
  -8  21  -7 104.241 77.3799   3
  -8  21  -8 136.659 80.8839   3
  -8  21  -9 244.974 93.1610   3
  -8  21 -10 225.913 91.2398   3
  -8  22  12 40.9785 76.6185   2
  -8  22  11 157.250 79.5968   2
  -8  22  11 138.616 79.3031   4
  -8  22  10 57.0704 72.1424   2
  -8  22  10 151.096 74.8668   4
  -8  22   9-55.0618 68.0063   2
  -8  22   9-51.6998 82.2898   3
  -8  22   9 21.5058 63.6978   4
  -8  22   8 186.275 79.1473   2
  -8  22   8 445.772 107.519   3
  -8  22   8 117.352 70.3683   4
  -8  22   7 80.7286 68.9280   2
  -8  22   7-50.2406 70.5642   3
  -8  22   7 96.3695 68.9655   4
  -8  22   6 113.461 67.4548   2
  -8  22   6 191.665 85.3764   3
  -8  22   5 313.989 77.7965   2
  -8  22   5 424.039 104.559   3
  -8  22   4 225.046 73.3827   3
  -8  22   3 1195.33 141.282   3
  -8  22   2 66.2903 71.2188   3
  -8  22   1 75.0764 59.6151   3
  -8  22   0 415.081 95.0984   3
  -8  22  -1-10.5923 64.2668   3
  -8  22  -2 328.840 91.8236   3
  -8  22  -3 609.834 106.371   3
  -8  22  -4-50.4306 77.6109   3
  -8  22  -5 74.7093 73.4351   3
  -8  22  -6 233.489 87.6637   3
  -8  22  -7 51.1446 74.0589   3
  -8  22  -8 333.072 96.3946   3
  -8  22  -9 75.1174 78.6800   3
  -8  23  11 301.047 105.515   2
  -8  23  11 126.125 74.5571   4
  -8  23  10 82.7986 66.9269   2
  -8  23  10 10.2438 73.3701   4
  -8  23   9 115.034 76.0914   2
  -8  23   9 35.7719 72.5174   4
  -8  23   8-3.36197 63.6763   2
  -8  23   8-36.3787 62.0444   4
  -8  23   7-0.62600 56.6106   2
  -8  23   7-31.8153 65.0624   3
  -8  23   7 80.3391 59.6392   4
  -8  23   6 346.211 84.0282   2
  -8  23   6 324.049 94.5856   3
  -8  23   5 223.282 87.0161   3
  -8  23   4 1031.92 138.285   3
  -8  23   3 116.276 78.1089   3
  -8  23   2 152.448 67.0693   3
  -8  23   1 57.7694 73.4795   3
  -8  23   0 85.4926 59.8047   3
  -8  23  -1-153.990 87.9140   3
  -8  23  -2 935.265 124.588   3
  -8  23  -3-3.56701 72.5556   3
  -8  23  -4 899.371 127.446   3
  -8  23  -5 287.509 96.3117   3
  -8  23  -6 693.081 117.250   3
  -8  23  -7 111.597 73.7676   3
  -8  24  10 269.849 99.0301   2
  -8  24  10 218.935 86.8206   4
  -8  24   9 11.3432 75.4840   2
  -8  24   9 54.5279 61.6169   4
  -8  24   8 592.994 107.345   2
  -8  24   8 533.054 103.398   4
  -8  24   7-8.04166 59.1544   2
  -8  24   7 31.8058 67.1633   4
  -8  24   6 215.904 76.4896   2
  -8  24   5 42.2147 59.5158   3
  -8  24   4 275.089 97.4895   3
  -8  24   3 146.803 80.3785   3
  -8  24   2-121.865 80.1838   3
  -8  24   1 342.832 92.7851   3
  -8  24   0 433.661 96.6757   3
  -8  24  -1-120.402 71.5031   3
  -8  24  -2 504.587 106.694   3
  -8  24  -3 509.336 115.289   3
  -8  24  -4 67.0412 64.8987   3
  -8  24  -5 178.486 74.9663   3
  -8  25   9 160.981 80.7535   2
  -8  25   9 60.1600 76.8752   4
  -8  25   8-30.0231 71.5895   2
  -8  25   8-88.4242 78.4774   4
  -8  25   7 116.989 76.1096   2
  -8  25   2 4.74841 68.5904   3
  -8  25   1 215.993 92.0324   3
  -8  25   0 99.4688 66.2910   3
  -8  25  -1 52.9917 79.7062   3
  -8  25  -2 285.024 94.3131   3
  -8  26   9 283.582 96.2809   2
  -8  26   8 580.793 110.201   2
   9   0  -7 72.1895 38.7898   1
   9   0  -6 444.376 64.6796   1
   9   0  -5-19.4726 43.8882   1
   9   0  -4 165.693 55.2471   1
   9   0  -3-25.2681 47.7300   1
   9   0  -2 2771.48 158.766   1
  -9   0   1-7.38608 26.5958   3
   9   0  -1-5.06371 45.7712   1
   9   0   0 2126.20 146.457   1
  -9   0   0 2153.26 104.044   3
   9   0   1-40.9322 54.5233   1
  -9   0  -1-24.5074 27.4544   3
  -9   0  -2 1336.54 81.8846   3
   9   0   2 1242.27 118.411   1
  -9   0  -3-42.3286 29.5292   3
   9   0   3 10.2649 51.6585   1
  -9   0  -4 818.677 65.1159   3
   9   0   4 794.613 106.574   1
  -9   0  -5-29.6657 28.8385   3
   9   0   5-23.2683 68.6412   1
  -9   0  -6 2771.46 124.213   3
   9   0   6 2616.70 179.993   1
   9   0   7-86.6957 79.2509   1
   9   0   8 258.557 80.7226   1
   9   0   9 46.4408 63.9002   1
   9   0  10 782.213 114.904   1
   9   0  11-204.124 90.5775   1
   9   0  12-82.5053 75.3516   1
   9   0  13-59.2026 72.2007   1
   9   0  14 31.7773 76.2483   1
   9   0  15 39.0428 75.2645   1
   9   0  16 683.189 121.706   1
   9   0  17-58.2150 77.8611   1
   9   1  -7 2711.18 134.507   1
   9  -1  -7 2868.64 139.414   1
   9   1  -6 43.4409 39.6737   1
   9  -1  -6-14.1817 38.2812   1
   9  -1  -5 95.5527 43.0451   1
   9   1  -5 33.7297 39.2074   1
   9  -1  -4 14.8939 41.6192   1
   9   1  -4-29.3545 40.1021   1
   9  -1  -3 1084.24 102.404   1
   9   1  -3 1087.88 100.255   1
   9   1  -2-54.1410 53.4351   1
  -9   1   2 2.37222 27.3715   3
   9  -1  -2-43.2692 50.9920   1
   9  -1  -1 5442.06 229.442   1
  -9   1   1 5327.48 181.312   3
   9   1  -1 5108.47 223.192   1
   9   1   0 91.6226 51.7637   1
  -9   1   0 188.856 39.6623   3
  -9  -1   0 162.791 32.2062   3
   9  -1   0 88.2818 49.1857   1
   9   1   1 2582.84 163.671   1
  -9   1  -1 2976.51 127.489   3
  -9  -1  -1 2816.12 113.174   3
   9  -1   1 2749.66 169.032   1
   9  -1   2 118.600 55.6649   1
  -9   1  -2 190.880 36.7149   3
   9   1   2 215.639 66.1304   1
  -9   1  -3 671.451 61.8946   3
   9  -1   3 698.917 96.5160   1
   9   1   3 686.883 95.7657   1
  -9   1  -4 484.483 53.5609   3
   9  -1   4 233.244 69.0321   1
   9   1   4 333.286 73.8715   1
  -9   1  -5 2503.79 120.305   3
   9   1   5 2631.51 175.826   1
   9  -1   5 2298.82 165.297   1
  -9   1  -6 462.849 56.1139   3
   9  -1   6 398.552 81.1618   1
   9   1   6 430.290 89.6958   1
  -9   1  -7 2304.69 118.714   3
   9   1   7 2311.37 173.922   1
   9  -1   7 2343.89 171.892   1
   9  -1   8-121.305 80.4374   1
   9   1   8 28.4587 64.2700   1
   9  -1   9 434.008 94.1789   1
   9   1   9 406.837 83.7298   1
   9  -1  10 43.1417 56.1001   1
   9   1  10-50.4471 82.3680   1
   9   1  11-156.954 85.1758   1
   9  -1  11-101.794 81.7211   1
   9  -1  12-67.6656 82.1885   1
   9   1  12 108.916 71.1919   1
   9  -1  13 251.851 75.4541   1
   9   1  13 410.216 96.0031   1
   9  -1  14 41.5776 79.9626   1
   9   1  14-36.9036 76.0483   1
   9  -1  15 105.627 84.5313   1
   9   1  15 138.825 78.5554   1
   9   1  16-30.3013 65.9631   1
   9  -1  16-17.0098 81.6066   1
   9   1  17 120.578 70.9523   1
   9  -1  17 138.647 87.0150   1
   9   2  -8 556.624 62.9097   1
   9   2  -7-6.34743 34.6782   1
   9  -2  -7 91.0630 38.7063   1
   9  -2  -6 121.270 42.4884   1
   9   2  -6 207.335 51.4868   1
   9  -2  -5 2602.26 143.447   1
   9   2  -5 2898.40 146.848   1
   9   2  -4 917.254 90.3541   1
   9  -2  -4 788.065 86.4147   1
   9  -2  -3-24.9330 45.8514   1
  -9   2   3 79.1269 41.4576   3
   9   2  -3 27.0707 41.4872   1
  -9   2   2 570.607 62.7786   3
   9  -2  -2 507.476 77.2652   1
   9   2  -2 784.675 90.0141   1
   9  -2  -1-112.451 63.6937   1
  -9   2   1-3.70874 29.6813   3
   9   2  -1 5.11257 46.2899   1
  -9   2   0 2015.14 108.828   3
   9   2   0 1730.41 133.253   1
   9  -2   0 1678.87 133.677   1
   9   2   1 122.826 64.1053   1
   9  -2   1 30.9725 52.7423   1
  -9   2  -1 67.1358 32.5472   3
   9  -2   2 770.806 96.4740   1
  -9   2  -2 754.048 68.4540   3
   9   2   2 755.198 99.0201   1
   9   2   3 3016.24 183.210   1
  -9   2  -3 3116.49 136.792   3
  -9   2  -4 57.2461 31.4497   3
   9   2   4 18.6751 61.1857   1
  -9   2  -5 212.090 47.0727   3
   9   2   5 129.225 61.9816   1
  -9   2  -6 83.4131 38.3913   3
   9   2   6 101.018 61.6088   1
  -9   2  -7 670.768 70.5651   3
   9   2   7 451.354 86.9028   1
   9   2   8 944.402 117.835   1
   9  -2   8 732.885 105.797   1
   9  -2   9-141.308 84.9733   1
   9   2   9 9.03948 57.2704   1
   9  -2  10 361.708 84.2934   1
   9   2  10 301.124 84.7368   1
   9  -2  11 183.798 81.9850   1
   9   2  11 326.747 83.6182   1
   9   2  12 40.9977 66.9362   1
   9  -2  12-6.80139 73.0202   1
   9  -2  13 109.628 64.8190   1
   9   2  13 57.3337 67.4647   1
   9   2  14-66.3745 80.0039   1
   9  -2  14-47.4852 81.0456   1
   9   2  15 119.526 75.1323   1
   9  -2  15-108.556 90.3964   1
   9   2  16 428.017 97.8216   1
   9  -2  16 495.034 115.919   1
   9   2  17 96.5821 73.7907   1
   9  -2  17-67.2880 86.1457   1
   9  -3  -7-18.3295 38.1998   1
   9   3  -7 57.1153 37.2778   1
   9  -3  -6 172.295 46.5578   1
   9   3  -6 164.421 48.5428   1
   9  -3  -5 2090.24 128.968   1
   9   3  -5 2311.66 132.400   1
   9   3  -4 426.407 69.7409   1
   9  -3  -4 362.911 61.5443   1
  -9   3   3 1207.74 93.5639   3
   9   3  -3 1230.47 106.362   1
   9  -3  -3 1112.56 102.558   1
  -9   3   2 699.875 72.7518   3
   9   3  -2 659.684 84.8537   1
   9  -3  -2 625.248 78.1096   1
  -9   3   1 2513.40 127.947   3
   9   3  -1 2395.76 151.291   1
  -9   3   0 22.8958 29.9894   3
   9   3   0 34.4982 51.2191   1
  -9   3  -1 1697.98 104.266   3
   9   3   1 1643.92 130.679   1
   9   3   2 285.413 72.8119   1
  -9   3  -2 253.624 46.0924   3
   9   3   3 50.3978 60.5675   1
  -9   3  -3 168.936 43.0766   3
  -9   3  -4 1186.11 87.8901   3
   9   3   4 1147.57 119.664   1
  -9   3  -5 190.970 47.9628   3
   9   3   5 123.485 67.7185   1
  -9   3  -6 3685.75 159.724   3
   9   3   6 3697.42 209.767   1
  -9   3  -7 2329.42 128.438   3
   9   3   7 2386.70 172.011   1
   9   3   8-67.0261 67.8850   1
   9   3   9 1123.25 129.509   1
   9   3  10 869.468 119.320   1
   9   3  11 13.7227 60.0615   1
   9   3  12 112.261 74.1581   1
   9  -3  12 91.1579 68.5033   1
   9   3  13 0.31482 67.0729   1
   9  -3  13-59.2157 72.9636   1
   9  -3  14 643.466 107.654   1
   9   3  14 525.957 108.541   1
   9  -3  15 457.686 102.287   1
   9   3  15 708.649 114.792   1
   9  -3  16-191.005 94.0559   1
   9   3  16-40.2929 63.4057   1
   9  -3  17 43.5909 71.9607   1
   9   3  17 24.0849 71.1713   1
   9  -4  -7 299.002 52.8146   1
   9  -4  -6 258.448 54.8219   1
   9   4  -6 346.999 58.5104   1
   9   4  -5 4992.11 199.433   1
   9  -4  -5 4946.76 204.043   1
  -9   4   4 88.7148 45.4733   3
   9   4  -4 166.146 51.9223   1
   9  -4  -4-5.22250 43.4881   1
   9   4  -3 1068.92 101.523   1
  -9   4   3 1176.45 95.7986   3
   9   4  -2 548.059 79.8423   1
  -9   4   2 511.038 64.6111   3
   9   4  -1 331.179 68.9881   1
  -9   4   1 210.532 45.8742   3
  -9   4   0 652.762 69.8404   3
   9   4   0 770.756 94.1673   1
  -9   4  -1 1070.05 87.1265   3
   9   4   1 923.905 102.789   1
  -9   4  -2 983.762 83.8838   3
   9   4   2 883.954 103.833   1
  -9   4  -3 887.257 79.2713   3
   9   4   3 965.893 106.690   1
  -9   4  -4 95.0866 37.0716   3
   9   4   4-0.11773 59.8130   1
  -9   4  -5 2999.73 147.778   3
   9   4   5 3103.54 190.100   1
  -9   4  -6 130.864 45.0409   3
   9   4   6 113.958 71.3422   1
  -9   4  -7 32.4332 39.5363   3
   9   4   7 105.804 74.5129   1
   9   4   8 1686.88 149.886   1
   9   4   9 146.946 77.4873   1
   9   4  10 8.41847 63.6202   1
   9   4  11 423.765 93.7333   1
   9   4  12 54.2122 79.0756   1
   9   4  13 483.926 99.4681   1
   9  -4  14 127.583 87.3905   1
   9   4  14 74.0412 75.7732   1
   9   4  15 192.847 78.9698   1
   9  -4  15-88.8595 77.1865   1
   9   4  16 12.8674 67.1022   1
   9  -4  16 3.16600 68.0165   1
   9  -5  -7 374.984 57.2621   1
   9  -5  -6 798.886 83.3347   1
   9   5  -5 70.1745 44.9497   1
   9   5  -4 2809.21 153.020   1
  -9   5   4 3294.23 163.763   3
  -9   5   3 27.8140 39.8576   3
   9   5  -3 112.476 47.0984   1
  -9   5   2 1682.59 114.453   3
   9   5  -2 1600.65 120.328   1
   9   5  -1 232.351 64.5606   1
  -9   5   1 188.488 47.6914   3
   9   5   0 1.58516 50.1607   1
  -9   5   0-23.6263 38.1199   3
  -9   5  -1 504.363 66.7965   3
   9   5   1 484.718 83.2337   1
  -9   5  -2 812.528 79.0269   3
   9   5   2 882.836 106.269   1
  -9   5  -3 52.0983 35.3291   3
   9   5   3 88.4001 62.7126   1
  -9   5  -4 4067.12 175.458   3
   9   5   4 4091.98 216.629   1
  -9   5  -5 762.566 78.8812   3
   9   5   5 861.748 110.836   1
  -9   5  -6 363.153 60.9645   3
   9   5   6 356.303 79.1093   1
  -9   5  -7 736.947 80.6964   3
   9   5   7 785.505 110.057   1
   9   5   8 85.3665 75.0860   1
   9   5   9 228.333 77.1524   1
   9   5  10 276.976 83.8334   1
   9   5  11 210.131 80.5196   1
   9   5  12 1231.38 144.269   1
   9   5  13 259.684 77.7182   1
   9   5  14 426.560 104.634   1
   9   5  15-40.7200 60.6609   1
   9   5  16 138.355 80.8752   1
   9  -5  16 82.2054 81.3826   1
  -9   6  16 105.409 86.6348   2
  -9   6  15 984.165 142.811   2
  -9   6  14 286.988 103.936   2
  -9   6  13 2079.91 185.597   2
  -9   6  12 220.795 88.3131   2
  -9   6  11 1123.69 134.744   2
  -9   6  10-0.07146 64.3018   2
  -9   6   9 612.346 104.523   2
   9  -6  -7 1939.80 119.895   1
   9   6  -5 2356.69 136.830   1
  -9   6   5 2643.72 152.880   3
  -9   6   4-74.4093 47.2276   3
   9   6  -4 79.8045 51.1897   1
   9   6  -3 3920.13 184.074   1
  -9   6   3 4055.46 185.242   3
  -9   6   2 202.589 51.8139   3
   9   6  -2 432.164 74.4605   1
  -9   6   1-8.82699 37.9071   3
   9   6  -1 44.7756 54.0847   1
   9   6   0 188.308 64.9700   1
  -9   6   0 204.232 46.9710   3
  -9   6  -1 1726.41 116.575   3
   9   6   1 1859.41 141.047   1
   9   6   2 459.241 77.9193   1
  -9   6  -2 421.410 62.7777   3
  -9   6  -3 3112.26 155.735   3
   9   6   3 2864.03 178.407   1
  -9   6  -4-19.8883 38.7757   3
   9   6   4 133.413 70.4140   1
  -9   6  -5 1876.50 121.821   3
   9   6   5 1890.54 151.329   1
  -9   6  -6 100.610 48.7644   3
   9   6   6 114.140 74.3869   1
  -9   6  -7 330.247 62.6483   3
   9   6   7 240.305 77.5852   1
   9   6   8 83.7494 56.6107   1
   9   6   9 469.036 90.1812   1
   9   6  10 408.214 89.5543   1
   9   6  11 890.638 122.793   1
   9   6  12 49.9264 74.8169   1
   9   6  13 1025.81 131.337   1
   9   6  14 117.687 78.4762   1
   9   6  15 445.642 94.5810   1
   9   6  16 39.8911 69.9134   1
  -9   7  16 112.889 87.3065   2
  -9   7  15 420.590 114.766   2
  -9   7  14 635.230 116.542   2
  -9   7  13 209.264 89.4560   2
  -9   7  12 391.062 96.7531   2
  -9   7  11 147.990 71.6236   2
  -9   7  10 964.109 123.361   2
  -9   7   9 33.7303 57.9584   2
  -9   7   8 13.7139 51.1790   2
  -9   7   7 8.74518 52.1678   2
  -9   7   6 1747.01 142.314   2
  -9   7   5 41.7954 43.1735   3
   9   7  -4 3960.29 181.929   1
  -9   7   4 4011.49 193.780   3
  -9   7   3 153.951 51.2550   3
   9   7  -3 201.664 60.2794   1
  -9   7   2 429.795 66.1910   3
   9   7  -2 525.691 80.1433   1
  -9   7   1 197.389 53.8493   3
   9   7  -1 225.006 64.3917   1
  -9   7   0-27.2484 40.6032   3
   9   7   0 45.7195 52.5171   1
  -9   7  -1 12.4231 38.4986   3
   9   7   1-22.9639 51.7529   1
   9   7   2 556.320 91.9912   1
  -9   7  -2 576.062 73.3127   3
  -9   7  -3 1568.25 114.254   3
   9   7   3 1546.41 134.183   1
  -9   7  -4 1226.74 103.543   3
   9   7   4 1432.48 131.872   1
  -9   7  -5 352.590 60.1307   3
   9   7   5 311.388 84.1227   1
  -9   7  -6 1684.06 120.619   3
   9   7   6 1853.69 153.791   1
  -9   7  -7 1.50388 42.2281   3
   9   7   7-72.1234 67.2196   1
   9   7   8 127.921 72.2888   1
   9   7   9 115.006 70.5360   1
   9   7  10 252.947 86.3475   1
   9   7  11 73.7152 84.1072   1
   9   7  12 1907.85 168.555   1
   9   7  13 53.3156 65.3252   1
   9   7  14 686.466 121.355   1
   9   7  15 142.355 73.1782   1
   9   7  16 176.989 89.4830   1
  -9   8  16 234.006 103.965   2
  -9   8  15 1132.93 150.081   2
  -9   8  14 240.699 97.2515   2
  -9   8  13 2817.15 213.433   2
  -9   8  12 546.301 112.577   2
  -9   8  11 773.305 119.090   2
  -9   8  10 510.397 99.4350   2
  -9   8   9 371.994 88.1988   2
  -9   8   8 19.2525 62.1380   2
  -9   8   7 1373.79 132.806   2
  -9   8   6 222.001 69.9836   2
  -9   8   6 94.7126 47.8354   3
  -9   8   5 1897.54 135.481   3
  -9   8   5 1789.32 138.413   2
  -9   8   4 736.537 89.6692   3
  -9   8   3 2510.13 152.544   3
  -9   8   2 2.27052 42.4570   3
   9   8  -2 78.5131 51.4847   1
  -9   8   1 1573.72 119.462   3
   9   8  -1 1685.24 129.791   1
  -9   8   0-31.4955 49.5521   3
   9   8   0 69.0091 55.9259   1
  -9   8  -1 23.8101 40.6042   3
   9   8   1 63.8876 49.4759   1
  -9   8  -2 7.59431 39.5670   3
   9   8   2-63.4080 50.4451   1
  -9   8  -3 1256.83 107.284   3
   9   8   3 1399.65 127.271   1
  -9   8  -4 301.368 60.6064   3
   9   8   4 255.673 73.3704   1
   9   8   5 1454.11 135.033   1
  -9   8  -5 1207.61 104.979   3
   9   8   6 103.698 61.8078   1
  -9   8  -6 136.069 55.0769   3
  -9   8  -7 175.310 56.1106   3
   9   8   7 154.291 69.5591   1
   9   8   8 184.217 83.5570   1
  -9   8  -8 128.201 56.6233   3
   9   8   9 471.714 100.506   1
   9   8  10 174.247 80.1544   1
   9   8  11 1597.45 160.428   1
   9   8  12 130.022 78.4605   1
   9   8  13 709.513 113.275   1
   9   8  14 6.61645 75.4039   1
   9   8  15 7.68591 59.0186   1
   9   8  16-22.2149 72.1700   1
  -9   9  16 130.429 85.9398   2
  -9   9  15 88.2048 86.6567   2
  -9   9  14 307.693 103.576   2
  -9   9  13 134.842 74.9151   2
  -9   9  12 549.354 113.605   2
  -9   9  11 219.516 83.5815   2
  -9   9  10 26.0611 61.3026   2
  -9   9   9 2234.99 171.222   2
  -9   9   8-23.7537 55.8636   2
  -9   9   7 639.248 96.5276   2
  -9   9   6 1427.79 125.445   3
  -9   9   6 1572.35 135.856   2
  -9   9   5 58.3626 55.6251   2
  -9   9   5-33.7949 50.1629   3
  -9   9   4 1036.61 105.704   3
  -9   9   4 1330.26 117.124   2
  -9   9   3 7.74287 42.9472   2
  -9   9   3-44.2969 47.9061   3
  -9   9   2 3111.22 171.740   3
  -9   9   1 2523.68 152.487   3
   9   9  -1 2352.09 151.848   1
  -9   9   0 73.2610 41.5408   3
   9   9   0 145.024 60.2031   1
  -9   9  -1 631.294 78.6443   3
   9   9   1 906.285 103.228   1
  -9   9  -2 1207.13 106.977   3
   9   9   2 1309.35 123.642   1
  -9   9  -3 38.1837 43.3261   3
   9   9   3-23.6369 61.3292   1
  -9   9  -4 373.645 68.9065   3
   9   9   4 294.152 74.9388   1
  -9   9  -5 76.6997 50.5492   3
   9   9   5 49.0383 51.2103   1
  -9   9  -6 607.833 82.8303   3
   9   9   6 569.824 97.5513   1
  -9   9  -7 160.212 56.1057   3
   9   9   7-16.4099 50.0491   1
  -9   9  -8 362.612 71.6458   3
   9   9   8 192.833 76.0944   1
   9   9   9 211.302 79.6437   1
   9   9  10 222.252 85.9282   1
   9   9  11 7.65243 69.3692   1
   9   9  12 329.335 92.9883   1
   9   9  13 124.615 72.1881   1
   9   9  14 1141.51 143.604   1
   9   9  15 441.386 97.8151   1
  -9  10  16 268.535 106.959   2
  -9  10  15 12.5087 71.9809   2
  -9  10  14 328.120 94.8802   2
  -9  10  13 564.306 114.932   2
  -9  10  12 177.672 79.1588   2
  -9  10  11 638.957 112.242   2
  -9  10  10 455.371 94.2662   2
  -9  10   9 733.565 108.380   2
  -9  10   8 418.808 90.1250   2
  -9  10   7 1052.47 122.086   2
  -9  10   7 1182.75 121.994   3
  -9  10   6 139.836 61.5590   2
  -9  10   6 125.902 58.9334   3
  -9  10   6 277.946 65.4024   4
  -9  10   5 2126.06 150.922   3
  -9  10   5 2175.52 151.504   2
  -9  10   5 1894.69 132.153   4
  -9  10   4 272.192 64.4709   2
  -9  10   4 239.311 65.3506   3
  -9  10   4 292.215 59.9794   4
  -9  10   3 2218.99 152.506   3
  -9  10   3 2230.90 142.411   2
  -9  10   3 2269.68 130.658   4
  -9  10   2 1235.09 113.959   3
  -9  10   2 1427.35 113.792   2
  -9  10   1 129.097 49.5499   3
   9  10   0 497.256 82.7908   1
  -9  10   0 331.334 67.1129   3
  -9  10  -1 2055.40 140.427   3
   9  10   1 1839.18 139.277   1
  -9  10  -2 196.699 56.5891   3
   9  10   2 265.172 69.2853   1
  -9  10  -3-34.0622 53.3730   3
   9  10   3-3.80613 47.6426   1
  -9  10  -4 563.285 80.6382   3
   9  10   4 683.509 98.2896   1
  -9  10  -5 501.140 79.9161   3
   9  10   5 451.540 87.0866   1
  -9  10  -6 330.509 68.3050   3
   9  10   6 323.254 76.4744   1
  -9  10  -7 41.5301 48.1227   3
   9  10   7 5.93127 61.9787   1
  -9  10  -8 395.448 75.6929   3
   9  10   8 481.891 90.2197   1
   9  10   9 466.316 96.2232   1
   9  10  10 10.8043 63.5752   1
   9  10  11 452.283 93.9651   1
   9  10  12 58.6052 62.3209   1
   9  10  13 1330.51 142.147   1
   9  10  14 90.5354 78.4028   1
   9  10  15 34.2106 61.3871   1
  -9  11  15 735.536 128.335   2
  -9  11  14 210.803 93.3500   2
  -9  11  13 47.1872 68.6295   2
  -9  11  12 154.580 79.2075   2
  -9  11  11 365.024 94.2085   2
  -9  11  10 406.422 96.7757   2
  -9  11   9 2577.11 186.038   2
  -9  11   8 395.096 85.9595   2
  -9  11   8 340.390 75.1211   4
  -9  11   7 1914.32 153.275   3
  -9  11   7 1690.41 143.740   2
  -9  11   7 1676.60 133.598   4
  -9  11   6 138.542 66.2038   3
  -9  11   6 203.027 69.0622   2
  -9  11   6 195.324 63.0299   4
  -9  11   5 664.861 92.5708   3
  -9  11   5 679.479 88.2593   4
  -9  11   5 714.371 95.0307   2
  -9  11   4 1871.97 143.047   3
  -9  11   4 2227.44 149.154   2
  -9  11   4 1997.14 131.121   4
  -9  11   3 1334.43 123.373   3
  -9  11   3 1661.89 125.705   2
  -9  11   3 1434.63 106.770   4
  -9  11   2 52.0082 40.4723   2
  -9  11   2 38.9981 46.6529   3
  -9  11   1 775.709 90.6999   3
  -9  11   1 912.462 89.2831   2
  -9  11   0 623.632 86.2794   3
  -9  11  -1 1104.45 108.193   3
   9  11   2 467.949 87.5020   1
  -9  11  -2 280.776 64.3056   3
  -9  11  -3-41.1803 51.6146   3
   9  11   3 6.35945 55.6209   1
  -9  11  -4 496.967 79.3859   3
   9  11   4 486.054 93.4254   1
  -9  11  -5 79.0022 51.7856   3
   9  11   5 119.862 68.0965   1
  -9  11  -6 104.549 56.7850   3
   9  11   6 175.301 67.1791   1
  -9  11  -7 141.165 60.5050   3
   9  11   7 149.478 71.3187   1
  -9  11  -8 274.630 70.4077   3
   9  11   8 220.222 75.2630   1
   9  11   9 496.813 96.1864   1
   9  11  10 30.4684 55.9584   1
   9  11  11 267.120 77.6658   1
   9  11  12 432.393 90.7786   1
   9  11  13 187.416 83.0564   1
   9  11  14 62.4731 73.4592   1
  -9  12  15 374.472 117.909   2
  -9  12  14-5.11220 67.9515   2
  -9  12  13 275.167 92.9841   2
  -9  12  12 321.228 93.1941   2
  -9  12  11 68.9896 66.9715   2
  -9  12  10 304.398 85.4004   2
  -9  12  10 389.787 86.5599   4
  -9  12   9 270.225 83.0599   2
  -9  12   9 298.029 76.5457   4
  -9  12   8 1514.19 144.652   2
  -9  12   8 1559.24 138.837   4
  -9  12   7 563.767 97.1683   3
  -9  12   7 459.517 88.8614   2
  -9  12   7 576.606 86.7738   4
  -9  12   6 64.7077 57.7593   3
  -9  12   6 62.8960 56.5132   2
  -9  12   6 114.380 55.8997   4
  -9  12   5 1673.02 142.183   3
  -9  12   5 1630.32 134.782   2
  -9  12   5 1655.76 126.751   4
  -9  12   4-66.8775 51.7999   3
  -9  12   4 49.4714 46.2063   4
  -9  12   4 51.2236 48.5889   2
  -9  12   3 37.2367 55.0603   3
  -9  12   3-7.03625 37.8529   4
  -9  12   3 57.8896 46.0438   2
  -9  12   2 746.023 84.8244   2
  -9  12   2 606.356 85.7900   3
  -9  12   1-37.3030 49.1280   3
  -9  12   0 1182.10 115.772   3
  -9  12  -1 98.4339 56.6499   3
  -9  12  -2 57.8892 45.4603   3
  -9  12  -3-1.77289 50.9029   3
  -9  12  -4-54.1913 49.3093   3
   9  12   4 51.1808 57.6913   1
  -9  12  -5 509.559 83.9151   3
   9  12   5 358.589 80.4074   1
  -9  12  -6 894.964 103.061   3
   9  12   6 1024.15 122.378   1
  -9  12  -7 113.883 64.3532   3
   9  12   7-8.09043 58.5588   1
  -9  12  -8 1250.87 124.110   3
   9  12   8 1408.82 145.063   1
   9  12   9 340.148 84.0536   1
  -9  12  -9 540.395 92.9990   3
   9  12  10 528.476 98.1669   1
   9  12  11 518.257 92.7689   1
   9  12  12 93.6319 65.3331   1
   9  12  13 24.2679 67.2038   1
   9  12  14-11.4931 71.3365   1
  -9  13  15 548.720 125.778   2
  -9  13  14-94.1585 74.9390   2
  -9  13  13 47.3337 75.9646   2
  -9  13  12 150.613 73.4036   2
  -9  13  11 785.128 122.005   2
  -9  13  11 860.608 122.983   4
  -9  13  10 128.758 72.4766   2
  -9  13  10 153.767 72.7391   4
  -9  13   9 1201.58 133.862   2
  -9  13   9 1107.77 125.059   4
  -9  13   8 123.251 69.4556   3
  -9  13   8-76.9546 64.1734   2
  -9  13   8 65.0526 56.8368   4
  -9  13   7 1633.80 147.822   3
  -9  13   7 1691.05 143.638   2
  -9  13   7 1717.98 139.764   4
  -9  13   6 75.1009 61.5299   3
  -9  13   6 85.8884 63.4664   2
  -9  13   6 73.3487 53.2409   4
  -9  13   5 73.6369 59.6770   3
  -9  13   5 9.16677 50.4996   2
  -9  13   5 5.63864 43.5942   4
  -9  13   4 98.0815 62.0757   3
  -9  13   4 174.477 59.5591   2
  -9  13   4 103.907 54.0163   4
  -9  13   3 293.333 66.8106   3
  -9  13   3 302.719 62.4474   4
  -9  13   3 257.272 62.0078   2
  -9  13   2 191.280 54.7479   3
  -9  13   2 251.054 61.5238   2
  -9  13   1 3168.55 189.598   3
  -9  13   0 51.5570 50.4938   3
  -9  13  -1 1164.91 117.117   3
  -9  13  -2 128.868 51.4005   3
  -9  13  -3-4.52920 47.5061   3
  -9  13  -4-34.1580 50.7296   3
  -9  13  -5 355.570 74.4136   3
  -9  13  -6 493.220 88.1301   3
  -9  13  -7 1600.51 138.920   3
  -9  13  -8 137.485 69.4295   3
   9  13   8 130.095 75.7727   1
  -9  13  -9 898.410 113.234   3
   9  13   9 828.690 123.487   1
   9  13  10 140.541 73.8597   1
   9  13  11 107.867 61.1905   1
   9  13  12 116.361 77.7017   1
   9  13  13 136.519 76.3575   1
  -9  14  14 185.170 88.2363   2
  -9  14  13 82.9331 69.7837   2
  -9  14  13 258.225 86.9511   4
  -9  14  12 56.3302 67.2087   2
  -9  14  12 108.921 76.9164   4
  -9  14  11 102.152 78.0961   2
  -9  14  11 201.038 77.1969   4
  -9  14  10 476.814 98.1735   2
  -9  14  10 540.372 100.141   4
  -9  14   9-31.7786 59.3151   2
  -9  14   9 54.8570 58.5556   4
  -9  14   8 380.473 89.1878   3
  -9  14   8 351.908 88.6690   2
  -9  14   8 520.260 92.1978   4
  -9  14   7 225.955 74.2839   3
  -9  14   7 83.8353 51.7249   2
  -9  14   7 186.242 63.5601   4
  -9  14   6 189.066 67.5832   3
  -9  14   6 109.626 59.1735   2
  -9  14   6 230.811 64.8544   4
  -9  14   5 196.849 65.8065   3
  -9  14   5 262.043 68.5821   2
  -9  14   5 201.969 59.2841   4
  -9  14   4 101.686 57.3234   3
  -9  14   4 155.066 57.0375   2
  -9  14   4 103.303 47.8947   4
  -9  14   3 122.299 63.0610   3
  -9  14   3 43.4777 46.0095   2
  -9  14   3 112.258 49.1310   4
  -9  14   2 747.539 99.7313   3
  -9  14   1 968.451 113.882   3
  -9  14   0 1976.33 152.462   3
  -9  14  -1 523.373 85.5544   3
  -9  14  -2 442.423 79.8079   3
  -9  14  -3 143.528 56.6023   3
  -9  14  -4 43.0077 50.9758   3
  -9  14  -5 271.968 73.5970   3
  -9  14  -6 518.917 89.4272   3
  -9  14  -7 726.994 106.611   3
  -9  14  -8 1433.60 134.970   3
  -9  14  -9 109.394 63.0267   3
  -9  15  14 2.27889 77.5725   2
  -9  15  14 60.1764 69.5656   4
  -9  15  13-13.5925 63.1137   2
  -9  15  13 102.751 75.9865   4
  -9  15  12 134.570 83.3075   2
  -9  15  12 181.852 79.5518   4
  -9  15  11 623.603 113.495   2
  -9  15  11 825.726 121.923   4
  -9  15  10-5.38118 58.4884   2
  -9  15  10 4.30637 63.9335   4
  -9  15   9 1210.33 132.064   2
  -9  15   9 1100.50 125.758   4
  -9  15   8 55.1977 67.4473   3
  -9  15   8 77.8895 61.1487   2
  -9  15   8 146.964 68.0932   4
  -9  15   7 920.050 119.769   3
  -9  15   7 1037.30 118.903   2
  -9  15   7 934.540 109.704   4
  -9  15   6 238.223 77.0069   3
  -9  15   6 267.777 72.7603   2
  -9  15   6 179.209 63.0176   4
  -9  15   5 77.5882 62.5613   3
  -9  15   5 98.7652 55.6414   2
  -9  15   5 125.013 57.0356   4
  -9  15   4 137.398 64.9323   3
  -9  15   4 130.358 55.3984   2
  -9  15   4 89.9036 56.9464   4
  -9  15   3 1046.07 118.065   3
  -9  15   2-29.3145 61.0387   3
  -9  15   1 670.009 103.957   3
  -9  15   0 292.801 71.5452   3
  -9  15  -1 594.537 91.2456   3
  -9  15  -2 15.2160 56.9540   3
  -9  15  -3 127.858 62.4358   3
  -9  15  -4 96.0640 58.5252   3
  -9  15  -5 515.114 86.8202   3
  -9  15  -6 24.2707 58.0173   3
  -9  15  -7 982.565 119.120   3
  -9  15  -8 28.5698 54.0981   3
  -9  15  -9 1006.68 121.023   3
  -9  15 -10 33.4422 65.6670   3
  -9  16  14 178.335 91.6149   4
  -9  16  13 96.4923 69.0073   2
  -9  16  13 160.119 79.6803   4
  -9  16  12-1.71654 74.6458   2
  -9  16  12 78.1210 70.7462   4
  -9  16  11 588.717 107.934   2
  -9  16  11 539.868 105.026   4
  -9  16  10 232.315 80.3303   2
  -9  16  10 218.116 78.8716   4
  -9  16   9-0.38793 66.2050   2
  -9  16   9 48.6683 66.8521   4
  -9  16   8 701.335 112.565   3
  -9  16   8 392.525 90.6884   2
  -9  16   8 594.387 97.3978   4
  -9  16   7 53.9354 57.2935   3
  -9  16   7-29.9307 56.3856   2
  -9  16   7 29.1551 54.4982   4
  -9  16   6 923.146 120.788   3
  -9  16   6 827.318 108.302   2
  -9  16   6 859.390 106.685   4
  -9  16   5 502.390 88.9738   3
  -9  16   5 587.963 90.5604   2
  -9  16   5 549.574 83.2834   4
  -9  16   4 3.99799 53.4861   3
  -9  16   4 28.6611 45.1607   2
  -9  16   4 19.2887 48.6544   4
  -9  16   3 808.636 106.008   3
  -9  16   2 88.6901 61.8667   3
  -9  16   1 88.2688 53.0672   3
  -9  16   0 768.915 103.812   3
  -9  16  -1 164.196 66.5352   3
  -9  16  -2 315.100 76.6128   3
  -9  16  -3 670.702 101.421   3
  -9  16  -4 173.733 67.2140   3
  -9  16  -5 321.639 86.6527   3
  -9  16  -6 354.537 80.3015   3
  -9  16  -7 228.831 72.1609   3
  -9  16  -8 1245.21 135.463   3
  -9  16  -9 133.314 76.4910   3
  -9  16 -10 675.991 109.866   3
  -9  17  14 172.745 92.3732   4
  -9  17  13 48.6158 63.8373   2
  -9  17  13 90.1913 73.4014   4
  -9  17  12 109.338 80.3787   2
  -9  17  12 182.319 83.8833   4
  -9  17  11 123.203 66.0714   2
  -9  17  11 139.942 74.9930   4
  -9  17  10 44.7642 66.9965   2
  -9  17  10 34.5028 63.2782   4
  -9  17   9 258.904 81.8513   2
  -9  17   9 375.507 87.7967   4
  -9  17   8 375.770 98.9781   3
  -9  17   8 351.899 85.3260   2
  -9  17   8 328.598 86.5525   4
  -9  17   7 313.643 91.5062   3
  -9  17   7 229.174 75.0509   2
  -9  17   7 213.713 74.7789   4
  -9  17   6 554.828 102.373   3
  -9  17   6 550.685 91.1727   2
  -9  17   6 530.323 89.3593   4
  -9  17   5-17.8143 66.1648   3
  -9  17   5 6.26977 50.5718   2
  -9  17   5-37.4791 54.8574   4
  -9  17   4-13.8886 57.2115   3
  -9  17   4 75.5281 54.8635   4
  -9  17   3 243.807 71.1217   3
  -9  17   2 101.278 59.6618   3
  -9  17   1 1503.46 143.701   3
  -9  17   0 14.4352 60.1175   3
  -9  17  -1 71.3181 60.9967   3
  -9  17  -2 221.303 70.8357   3
  -9  17  -3-26.6512 63.1195   3
  -9  17  -4 455.314 91.4629   3
  -9  17  -5 363.205 83.7590   3
  -9  17  -6 199.297 74.4251   3
  -9  17  -7 1084.92 129.800   3
  -9  17  -8-32.8133 61.4751   3
  -9  17  -9 176.982 74.7916   3
  -9  17 -10 383.409 98.3574   3
  -9  17 -11 65.5406 75.2164   3
  -9  18  13 831.206 132.062   2
  -9  18  13 732.587 132.653   4
  -9  18  12 207.073 92.8682   2
  -9  18  12 166.859 86.9024   4
  -9  18  11 249.822 81.1489   2
  -9  18  11 191.990 75.1017   4
  -9  18  10-155.022 84.5858   2
  -9  18  10-8.61261 65.7475   4
  -9  18   9 263.332 91.4437   3
  -9  18   9 175.414 76.4178   2
  -9  18   9 367.560 90.2598   4
  -9  18   8 339.959 90.2052   3
  -9  18   8 389.395 89.3842   2
  -9  18   8 507.860 97.8646   4
  -9  18   7 150.245 74.4278   3
  -9  18   7 56.0851 59.8591   2
  -9  18   7-1.56375 54.2200   4
  -9  18   6 459.716 95.2365   3
  -9  18   6 530.816 97.8238   2
  -9  18   6 540.798 92.3039   4
  -9  18   5 898.037 125.784   3
  -9  18   5 817.379 106.586   2
  -9  18   5 1140.67 120.050   4
  -9  18   4-20.9351 61.0140   3
  -9  18   3 891.940 118.645   3
  -9  18   2 121.598 63.4510   3
  -9  18   1 305.278 80.8433   3
  -9  18   0 181.130 74.4969   3
  -9  18  -1 209.695 70.6451   3
  -9  18  -2 1077.31 124.256   3
  -9  18  -3 603.431 103.801   3
  -9  18  -4-25.5219 57.4200   3
  -9  18  -5 1049.98 124.803   3
  -9  18  -6 161.249 80.0788   3
  -9  18  -7 138.279 67.7772   3
  -9  18  -8 315.245 82.0293   3
  -9  18  -9 473.039 97.6435   3
  -9  18 -10 311.700 89.2192   3
  -9  18 -11 169.378 83.6731   3
  -9  19  12 56.9622 79.3931   2
  -9  19  12 149.282 91.2170   4
  -9  19  11 388.343 100.462   2
  -9  19  11 216.107 86.6130   4
  -9  19  10 18.8138 67.0950   2
  -9  19  10-7.26732 65.7575   4
  -9  19   9-82.6668 77.8754   3
  -9  19   9-34.5840 63.6457   2
  -9  19   9 24.9560 66.8910   4
  -9  19   8 298.240 97.1723   3
  -9  19   8 202.064 74.4806   2
  -9  19   8 166.856 73.5929   4
  -9  19   7-72.1887 65.8750   3
  -9  19   7-55.3984 67.1567   2
  -9  19   7 60.5535 63.1070   4
  -9  19   6 125.144 76.1442   3
  -9  19   6 91.2004 61.1094   2
  -9  19   6 73.8865 54.8946   4
  -9  19   5 190.822 80.7258   3
  -9  19   5 194.652 66.6494   4
  -9  19   4 401.230 98.7745   3
  -9  19   3 136.474 59.9207   3
  -9  19   2 250.107 85.8793   3
  -9  19   1 35.0842 63.6875   3
  -9  19   0-38.6970 67.6506   3
  -9  19  -1-42.9392 61.1280   3
  -9  19  -2 120.883 77.2009   3
  -9  19  -3-8.13775 56.8421   3
  -9  19  -4 1261.64 140.784   3
  -9  19  -5 201.939 80.6719   3
  -9  19  -6 240.216 76.5706   3
  -9  19  -7 217.175 75.4952   3
  -9  19  -8-3.34831 55.9953   3
  -9  19  -9 28.7609 57.8894   3
  -9  19 -10 224.936 88.2863   3
  -9  20  12 228.603 87.7513   2
  -9  20  12 427.426 108.815   4
  -9  20  11 615.483 115.432   2
  -9  20  11 794.426 130.086   4
  -9  20  10-170.061 87.4538   2
  -9  20  10 79.2259 72.7960   4
  -9  20   9-43.4318 66.1283   3
  -9  20   9 34.2482 60.2138   2
  -9  20   9-19.9512 64.5194   4
  -9  20   8 35.3652 69.2259   3
  -9  20   8-89.2496 73.3172   2
  -9  20   8 43.7240 61.8840   4
  -9  20   7 89.8706 84.2552   3
  -9  20   7 32.9670 60.3911   2
  -9  20   7 94.0169 66.0597   4
  -9  20   6 484.273 99.1407   3
  -9  20   6 525.272 91.6935   4
  -9  20   5 705.482 118.642   3
  -9  20   5 724.937 106.175   4
  -9  20   4 455.567 99.5030   3
  -9  20   3 1409.41 150.880   3
  -9  20   2 12.5442 64.0178   3
  -9  20   1-58.3591 71.0732   3
  -9  20   0 298.178 80.4357   3
  -9  20  -1 185.115 76.6139   3
  -9  20  -2 299.062 80.7817   3
  -9  20  -3 996.091 133.251   3
  -9  20  -4 125.206 68.5245   3
  -9  20  -5 623.629 108.476   3
  -9  20  -6 27.3704 66.0934   3
  -9  20  -7 56.5914 72.8253   3
  -9  20  -8 217.608 90.7116   3
  -9  20  -9 150.984 75.9375   3
  -9  21  11-5.94061 69.5521   2
  -9  21  11 67.9227 76.3310   4
  -9  21  10-70.2917 75.3182   2
  -9  21  10-152.101 85.4373   4
  -9  21   9 84.7843 75.2466   2
  -9  21   9-12.3606 68.9691   4
  -9  21   8 37.6867 57.9571   2
  -9  21   8 70.8789 70.4896   4
  -9  21   7-39.8728 76.1062   3
  -9  21   7 40.3047 61.1395   4
  -9  21   6 625.569 114.009   3
  -9  21   6 578.856 100.417   4
  -9  21   5 56.6016 68.5795   3
  -9  21   4 49.0003 71.4341   3
  -9  21   3 210.542 75.2061   3
  -9  21   2 144.224 79.4040   3
  -9  21   1 57.4921 62.4912   3
  -9  21   0-63.0153 72.3811   3
  -9  21  -1 270.486 79.3469   3
  -9  21  -2 384.395 95.3346   3
  -9  21  -3-1.73076 56.1637   3
  -9  21  -4 281.560 88.0623   3
  -9  21  -5-3.72104 68.1189   3
  -9  21  -6 259.221 88.9017   3
  -9  21  -7 28.8183 71.9574   3
  -9  21  -8 64.8839 79.3951   3
  -9  22  10 78.4151 64.7824   2
  -9  22  10 182.914 81.5097   4
  -9  22   9-77.2006 80.2949   2
  -9  22   9 171.212 85.1404   4
  -9  22   8 54.7405 58.2137   2
  -9  22   8 17.4023 59.9098   4
  -9  22   7 78.1219 71.2456   4
  -9  22   6 44.8079 64.4477   3
  -9  22   6 32.7076 56.5285   4
  -9  22   5 136.377 78.1317   3
  -9  22   4 376.974 94.0716   3
  -9  22   3 244.680 83.0110   3
  -9  22   2 237.529 90.9549   3
  -9  22   1-48.9896 61.5974   3
  -9  22   0-13.5006 76.2396   3
  -9  22  -1 512.810 100.654   3
  -9  22  -2-1.62027 63.5129   3
  -9  22  -3 646.118 118.306   3
  -9  22  -4 100.452 77.8959   3
  -9  22  -5 516.923 107.026   3
  -9  22  -6-3.30591 61.9946   3
  -9  23  10 128.909 79.9763   2
  -9  23   9 66.6448 79.8360   2
  -9  23   9 46.0630 69.4105   4
  -9  23   8-79.0498 75.7132   4
  -9  23   7 322.843 89.1697   4
  -9  23   3-34.5629 77.5711   3
  -9  23   2 246.519 82.2575   3
  -9  23   1 196.829 89.7914   3
  -9  23   0-27.0837 57.2502   3
  -9  23  -1 73.7397 75.0161   3
  -9  23  -2 341.497 103.031   3
  -9  23  -3 124.233 69.7206   3
  -9  24   8 110.529 80.1934   4
  -9  24   7-4.11461 61.4662   4
  10   0  -6 814.259 87.4543   1
  10   0  -5 61.0800 48.1344   1
  10   0  -4 818.211 90.6566   1
  10   0  -3-140.042 61.7019   1
  10   0  -2 2006.02 143.282   1
  10   0  -1-86.6686 62.8707   1
  10   0   0 1965.24 150.121   1
  10   0   1-45.9016 62.5364   1
  10   0   2 244.163 65.5100   1
  10   0   3-117.377 79.3713   1
  10   0   4 2015.27 161.337   1
  10   0   5-134.053 85.3884   1
  10   0   6 836.679 120.272   1
  10   0   7-2.48180 70.5577   1
  10   0   8-100.634 82.9727   1
  10   0   9-2.16447 57.2332   1
  10   0  10 222.371 86.0714   1
  10   0  11-101.557 88.5701   1
  10   0  12 93.8201 67.1121   1
  10   0  13 29.6641 82.6424   1
  10   0  14 575.456 115.029   1
  10   1  -6 31.1296 42.9997   1
  10  -1  -6 38.2297 41.9890   1
  10   1  -5 231.363 59.3445   1
  10  -1  -5 109.838 48.3776   1
  10  -1  -4-6.00445 44.3733   1
  10   1  -4 48.7199 47.3858   1
  10   1  -3 1604.98 127.980   1
  10  -1  -3 1539.10 125.650   1
  10  -1  -2-17.7576 51.4527   1
  10   1  -2-23.6805 51.9817   1
  10   1  -1 946.711 106.502   1
  10  -1  -1 1031.25 113.359   1
  10   1   0 73.2769 52.8389   1
  10  -1   0-2.44153 53.5577   1
  10  -1   1 1350.30 130.177   1
  10   1   1 1224.99 122.324   1
  10  -1   2 34.4851 63.3224   1
  10   1   2 175.287 65.6317   1
  10  -1   3 412.650 82.0745   1
  10   1   3 385.630 82.3617   1
  10  -1   4 156.520 71.2843   1
  10   1   4 179.719 66.6035   1
  10  -1   5-67.7197 76.9772   1
  10   1   5 91.6068 57.9152   1
  10  -1   6 698.641 109.266   1
  10   1   6 823.558 114.029   1
  10  -1   7 601.575 107.707   1
  10   1   7 587.748 102.507   1
  10  -1   8 101.923 74.9820   1
  10   1   8 166.623 81.4262   1
  10   1   9 1594.62 157.321   1
  10  -1   9 1511.39 154.747   1
  10  -1  10-7.99626 72.3123   1
  10   1  10-54.2725 71.1638   1
  10  -1  11 279.917 87.4052   1
  10   1  11 162.200 82.9175   1
  10  -1  12-32.9908 77.0056   1
  10   1  12 22.1965 57.1800   1
  10   1  13 15.0035 74.4678   1
  10  -1  13-57.7465 68.5363   1
  10   1  14 25.8615 65.2113   1
  10  -1  14-179.541 99.4105   1
  10   2  -6 549.454 73.7614   1
  10  -2  -6 481.849 67.7280   1
  10   2  -5 591.599 80.1911   1
  10  -2  -5 652.211 81.5920   1
  10   2  -4 131.922 53.5798   1
  10  -2  -4 38.7591 44.8147   1
  10   2  -3 31.6867 50.9036   1
  10  -2  -3-38.9239 58.4994   1
  10   2  -2 1334.14 120.094   1
  10  -2  -2 1247.41 116.473   1
  10  -2  -1-86.2267 67.6225   1
  10   2  -1 140.220 59.1652   1
  10  -2   0 1260.23 124.854   1
  10   2   0 1323.34 125.448   1
  10  -2   1 3.72512 59.3999   1
  10   2   1 33.3263 61.6336   1
  10   2   2 667.979 100.590   1
  10  -2   2 565.342 96.3689   1
  10   2   3 748.710 102.772   1
  10  -2   3 545.552 91.6573   1
  10   2   4 99.2124 70.0198   1
  10  -2   4 23.2747 68.6106   1
  10   2   5 290.386 85.8135   1
  10  -2   5 80.0876 66.3354   1
  10   2   6 492.142 92.6231   1
  10  -2   6 500.305 101.521   1
  10   2   7-94.8592 81.6111   1
  10  -2   7-195.836 91.2916   1
  10  -2   8 1131.65 133.230   1
  10   2   8 1063.79 130.696   1
  10  -2   9-94.0700 72.4599   1
  10   2   9 89.6317 66.7127   1
  10   2  10 1.61235 66.3345   1
  10  -2  10-87.5263 86.0942   1
  10   2  11 104.626 76.8953   1
  10  -2  11 86.6869 74.1174   1
  10   2  12 24.0368 63.1304   1
  10  -2  12-96.4057 87.9382   1
  10   2  13-27.4436 73.3230   1
  10  -2  13 100.301 75.9276   1
  10   2  14 67.7844 63.0920   1
  10  -2  14 41.2509 78.4563   1
  10  -3  -6 40.5853 40.3501   1
  10   3  -6 60.1106 42.4400   1
  10  -3  -5-29.0743 46.6096   1
  10   3  -5-1.46993 40.7810   1
  10  -3  -4 1168.71 109.762   1
  10   3  -4 1354.43 115.720   1
  10  -3  -3 1749.26 134.284   1
  10   3  -3 1839.21 135.520   1
 -10   3   3 1870.78 120.289   3
  10   3  -2 193.692 64.0812   1
 -10   3   2 181.014 47.3214   3
  10  -3  -2 192.997 61.4954   1
 -10   3   1 1514.22 104.233   3
  10   3  -1 1311.06 121.474   1
  10  -3  -1 1433.36 127.947   1
 -10   3   0-24.8127 38.7156   3
  10  -3   0-62.6201 60.3625   1
  10   3   0-22.5464 49.0517   1
  10  -3   1 529.920 92.2820   1
  10   3   1 463.253 86.2844   1
  10   3   2 835.065 107.668   1
  10  -3   2 657.826 95.6081   1
  10  -3   3 261.893 78.2134   1
  10   3   3 586.592 95.0057   1
  10  -3   4 149.126 70.7814   1
  10   3   4 211.614 74.0096   1
  10  -3   5 201.678 77.0991   1
  10   3   5 303.366 82.3064   1
  10   3   6 148.623 68.6645   1
  10  -3   6 17.9506 73.9393   1
  10   3   7 559.780 101.155   1
  10  -3   7 511.420 102.718   1
  10   3   8 43.4487 58.2204   1
  10  -3   8-101.068 79.1751   1
  10   3   9 289.872 79.6483   1
  10  -3   9 79.2392 67.4879   1
  10   3  10 213.484 80.7085   1
  10  -3  10 119.682 83.3099   1
  10  -3  11 296.629 88.2586   1
  10   3  11 388.534 101.580   1
  10  -3  12 13.1464 74.5251   1
  10   3  12 281.848 86.5488   1
  10   3  13 47.5966 70.5788   1
  10  -3  13-210.633 99.9887   1
  10  -3  14-40.7738 75.1644   1
  10   3  14-24.7009 72.6165   1
  10   4  -6-7.81448 38.9455   1
  10  -4  -6 37.5305 40.0249   1
  10   4  -5 655.835 84.6498   1
  10  -4  -5 615.269 81.1856   1
  10  -4  -4-96.2649 58.9562   1
  10   4  -4-94.2306 52.1199   1
  10  -4  -3 259.233 60.4318   1
 -10   4   3 287.220 55.7116   3
  10   4  -3 440.393 75.7907   1
  10   4  -2 58.0323 49.4388   1
 -10   4   2 28.7124 37.5910   3
  10  -4  -2-38.7017 59.0568   1
  10   4  -1 267.329 71.4405   1
  10  -4  -1 93.9085 55.0662   1
 -10   4   1 248.075 54.7374   3
 -10   4   0 970.706 89.8416   3
  10   4   0 817.334 103.946   1
 -10   4  -1-7.16772 39.4945   3
  10   4   1-19.6690 54.7540   1
 -10   4  -2 77.7542 37.1083   3
  10   4   2 60.1442 61.9898   1
 -10   4  -3 487.402 65.0233   3
  10   4   3 385.906 86.5487   1
 -10   4  -4 190.526 50.8263   3
  10   4   4 179.553 69.5357   1
  10   4   5 2068.43 170.450   1
  10   4   6 949.033 124.971   1
  10   4   7 33.5874 59.8520   1
  10   4   8 787.169 114.581   1
  10   4   9 273.778 77.0721   1
  10   4  10 84.9665 67.9893   1
  10  -4  11 434.255 97.1858   1
  10   4  11 555.976 112.589   1
  10  -4  12-90.7260 74.8669   1
  10   4  12 165.696 81.8071   1
  10  -4  13 201.866 89.6682   1
  10   4  13 456.340 106.295   1
  10  -4  14 54.9948 84.7026   1
  10   4  14 282.121 99.1614   1
  10  -5  -6 814.074 88.3372   1
  10   5  -5 65.4615 46.9177   1
  10  -5  -5-19.3833 50.4482   1
  10   5  -4 1180.88 105.159   1
 -10   5   4 1244.38 107.588   3
  10  -5  -4 1141.24 107.259   1
  10  -5  -3-30.3141 56.0135   1
 -10   5   3 69.0220 44.3499   3
  10   5  -3 109.499 56.5134   1
 -10   5   2 905.745 90.1401   3
  10   5  -2 906.064 99.0491   1
  10   5  -1 1017.59 108.378   1
 -10   5   1 1213.02 100.678   3
  10   5   0 809.341 104.131   1
 -10   5   0 725.380 79.9781   3
  10   5   1 604.263 97.9657   1
 -10   5  -1 341.722 59.4687   3
 -10   5  -2 955.829 89.0884   3
  10   5   2 949.504 112.650   1
 -10   5  -3-27.0049 40.4512   3
  10   5   3-37.4582 62.9474   1
 -10   5  -4 2898.79 151.981   3
  10   5   4 2836.91 191.538   1
 -10   5  -5 93.4620 43.0322   3
  10   5   5 118.024 72.8798   1
 -10   5  -6 321.286 61.9510   3
  10   5   6 554.799 105.057   1
 -10   5  -7 247.309 58.0249   3
  10   5   7 227.728 81.3756   1
  10   5   8 156.194 73.5039   1
  10   5   9 110.703 72.0101   1
  10   5  10 291.720 96.0446   1
  10   5  11 147.057 85.7767   1
  10   5  12 468.544 101.824   1
  10   5  13 77.6728 74.3022   1
  10  -6  -6-30.1570 46.7433   1
  10   6  -5 1175.06 103.859   1
  10  -6  -5 800.876 89.6572   1
  10   6  -4-8.30331 48.7310   1
 -10   6   4-12.9055 40.3219   3
  10   6  -3 2965.97 169.536   1
 -10   6   3 3064.05 166.383   3
 -10   6   2-17.1033 39.7419   3
  10   6  -2-52.9717 51.7336   1
 -10   6   1 218.039 55.0783   3
  10   6  -1 226.715 68.9706   1
 -10   6   0-27.7663 42.6029   3
  10   6   0-13.9345 55.0479   1
  10   6   1 400.484 81.0866   1
 -10   6  -1 385.247 63.1971   3
  10   6   2 71.0206 59.9825   1
 -10   6  -2-46.0831 45.1659   3
  10   6   3 516.012 95.4013   1
 -10   6  -3 456.063 69.1070   3
 -10   6  -4 32.7113 38.2432   3
  10   6   4 183.945 75.0783   1
 -10   6  -5 1464.40 112.062   3
  10   6   5 1572.93 146.064   1
 -10   6  -6 756.534 84.6374   3
  10   6   6 897.115 121.239   1
 -10   6  -7 357.763 66.5553   3
  10   6   7 551.438 105.823   1
 -10   6  -8 254.039 61.8431   3
  10   6   8 284.822 91.8594   1
 -10   6  -9 192.685 59.1060   3
  10   6   9 53.0241 71.5568   1
  10   6  10 192.793 85.9166   1
  10   6  11 698.186 120.324   1
  10   6  12 38.2675 75.8107   1
  10   6  13 595.294 111.855   1
 -10   7   5-28.8216 44.6834   3
 -10   7   4 1823.00 134.677   3
  10   7  -3 74.8151 48.9056   1
 -10   7   3 48.5407 47.0404   3
 -10   7   2 448.213 73.8561   3
  10   7  -2 398.537 77.2765   1
 -10   7   1 77.5217 41.7011   3
  10   7  -1 5.50705 48.3427   1
 -10   7   0-0.52510 45.2998   3
  10   7   0-8.05361 57.6913   1
 -10   7  -1 30.3420 39.4440   3
  10   7   1 18.4026 58.3671   1
 -10   7  -2 1379.62 111.334   3
  10   7   2 1468.56 139.822   1
  10   7   3 226.141 81.4106   1
 -10   7  -3 91.9462 46.2640   3
  10   7   4 1052.55 126.223   1
 -10   7  -4 780.913 88.3851   3
  10   7   5 289.834 82.4004   1
 -10   7  -5 240.662 58.4944   3
 -10   7  -6 861.824 92.7551   3
  10   7   6 887.060 120.697   1
 -10   7  -7 56.5056 46.9048   3
  10   7   7 48.3493 72.8002   1
 -10   7  -8 17.3408 47.0115   3
  10   7   8 106.294 72.4727   1
 -10   7  -9 178.810 58.3601   3
  10   7   9 31.1530 68.3702   1
  10   7  10 956.529 131.766   1
 -10   7 -10 737.773 93.6645   3
  10   7  11 280.650 94.1993   1
  10   7  12 742.894 125.934   1
  10   7  13 36.3105 74.0555   1
 -10   8  14 216.028 97.1303   2
 -10   8  13 532.515 119.025   2
 -10   8  12 14.2334 75.8562   2
 -10   8  11 410.616 102.744   2
 -10   8   5 1407.84 125.918   3
 -10   8   4 395.624 73.4700   3
 -10   8   3 1025.31 103.877   3
 -10   8   2-28.2731 44.0095   3
  10   8  -2 29.8969 53.1500   1
 -10   8   1 82.5511 44.8633   3
  10   8  -1 120.683 62.2523   1
 -10   8   0 45.0094 42.0755   3
  10   8   0 58.1284 49.1456   1
 -10   8  -1 26.4186 41.8181   3
  10   8   1 52.6408 55.3512   1
 -10   8  -2 136.776 57.4532   3
  10   8   2 180.124 66.8169   1
 -10   8  -3 1534.32 122.534   3
  10   8   3 1691.30 148.252   1
 -10   8  -4 6.93691 39.8953   3
  10   8   4 39.9878 58.8762   1
 -10   8  -5 88.2592 47.6594   3
  10   8   5 4.88200 63.9451   1
 -10   8  -6 100.330 49.7911   3
  10   8   6 63.9639 63.4306   1
  10   8   7 329.359 91.0791   1
 -10   8  -7 270.685 66.5718   3
  10   8   8-12.1507 67.8071   1
 -10   8  -8 73.9230 52.4069   3
  10   8   9 12.6537 71.3130   1
 -10   8  -9 82.8544 51.3305   3
 -10   8 -10 93.3523 55.4435   3
  10   8  10 19.4837 72.7305   1
  10   8  11 648.573 115.231   1
  10   8  12 208.887 91.0459   1
  10   8  13 843.279 129.219   1
 -10   9  14 376.337 111.573   2
 -10   9  13 408.241 107.394   2
 -10   9  12 647.921 121.677   2
 -10   9  11 114.784 83.1270   2
 -10   9  10 135.011 79.4616   2
 -10   9   9 287.996 85.4945   2
 -10   9   8 543.119 101.078   2
 -10   9   6 1737.15 144.277   3
 -10   9   5-82.4920 61.1689   3
 -10   9   4 835.028 101.983   3
 -10   9   3 296.349 65.4569   3
 -10   9   2 727.753 90.3225   3
  10   9  -1 695.487 95.3363   1
 -10   9   1 712.320 86.8490   3
 -10   9   0 321.750 68.0577   3
  10   9   0 338.803 77.0537   1
 -10   9  -1 47.1353 41.9722   3
  10   9   1 69.8078 56.5098   1
 -10   9  -2 424.892 71.9664   3
  10   9   2 577.055 90.7763   1
 -10   9  -3-5.82555 41.8625   3
  10   9   3 78.7267 64.4322   1
 -10   9  -4 410.187 73.0105   3
  10   9   4 500.938 93.0728   1
 -10   9  -5 136.180 54.8028   3
  10   9   5 130.792 71.4837   1
 -10   9  -6 17.5799 44.6983   3
  10   9   6 19.4444 58.3549   1
 -10   9  -7 385.950 73.7342   3
  10   9   7 376.664 89.0067   1
 -10   9  -8 39.4350 53.9993   3
  10   9   8 15.1477 68.9195   1
 -10   9  -9 152.603 68.0707   3
  10   9   9 61.9638 68.2706   1
 -10   9 -10 375.339 82.9883   3
  10   9  10 279.495 85.0664   1
  10   9  11 157.376 80.6681   1
  10   9  12 952.550 137.469   1
 -10  10  14 402.200 107.961   2
 -10  10  13 460.344 111.945   2
 -10  10  12 3.47204 67.2524   2
 -10  10  11 62.3652 74.8184   2
 -10  10  10 1513.13 157.671   2
 -10  10   9 19.3494 60.1953   2
 -10  10   8 337.616 85.7831   2
 -10  10   7 136.686 71.8353   2
 -10  10   6 23.6992 55.6737   2
 -10  10   6 76.6320 59.6582   3
 -10  10   5 1513.71 133.236   3
 -10  10   4-15.7500 49.8231   3
 -10  10   3 2141.76 152.354   3
 -10  10   2 818.508 98.3709   3
 -10  10   1 326.456 66.3772   3
  10  10   0 872.951 105.973   1
 -10  10   0 822.766 98.0190   3
 -10  10  -1 1322.50 119.530   3
  10  10   1 1118.43 119.274   1
 -10  10  -2 47.5449 43.3982   3
  10  10   2 19.6849 57.7900   1
 -10  10  -3 582.601 86.6807   3
  10  10   3 704.654 108.813   1
 -10  10  -4 57.9582 49.0627   3
  10  10   4-89.3734 69.8773   1
 -10  10  -5 707.128 92.6767   3
  10  10   5 1049.00 123.006   1
 -10  10  -6 456.839 77.5182   3
  10  10   6 476.246 96.8263   1
 -10  10  -7 25.0946 44.8102   3
  10  10   7 39.1123 62.5273   1
 -10  10  -8 234.733 69.7855   3
  10  10   8 298.170 91.5331   1
 -10  10  -9-24.1695 48.4317   3
  10  10   9-6.99121 67.4047   1
 -10  10 -10 88.2057 61.2552   3
  10  10  10 5.16511 73.0936   1
  10  10  11 377.172 101.202   1
  10  10  12 68.6125 82.1060   1
 -10  11  14 58.0106 80.6661   2
 -10  11  13 336.108 100.786   2
 -10  11  12 330.673 104.920   2
 -10  11  11 514.101 106.233   2
 -10  11  10 202.388 86.8248   2
 -10  11   9 777.455 117.756   2
 -10  11   8 216.139 84.1053   2
 -10  11   7 110.619 64.0551   2
 -10  11   6 1099.68 122.570   2
 -10  11   6 1170.11 127.750   3
 -10  11   5 177.431 69.6046   2
 -10  11   5 23.6700 52.1333   3
 -10  11   4 1110.39 118.329   3
 -10  11   3 221.173 62.0480   3
 -10  11   2 250.163 66.8616   3
 -10  11   1 288.885 73.0674   3
 -10  11   0 71.3841 52.3926   3
 -10  11  -1 828.375 100.323   3
  10  11   2 436.614 90.9804   1
 -10  11  -2 575.066 86.4946   3
 -10  11  -3 111.514 59.9248   3
  10  11   3 104.310 68.8531   1
 -10  11  -4 15.0565 46.4161   3
  10  11   4-20.4679 62.6529   1
 -10  11  -5 28.3108 48.0455   3
  10  11   5-8.94351 54.1025   1
 -10  11  -6 156.475 63.8457   3
  10  11   6 158.366 76.2884   1
 -10  11  -7 735.140 100.824   3
  10  11   7 687.164 108.074   1
 -10  11  -8 84.8749 54.4175   3
  10  11   8 299.482 87.2595   1
 -10  11  -9 423.287 83.3956   3
  10  11   9 349.050 94.0923   1
 -10  11 -10 254.393 78.3550   3
  10  11  10 129.746 83.9943   1
  10  11  11 149.670 88.5585   1
 -10  11 -11 183.255 73.6190   3
 -10  12  13 230.134 82.9032   2
 -10  12  12 222.236 81.4668   2
 -10  12  11 144.327 78.5972   2
 -10  12  10 711.092 117.829   2
 -10  12   9 144.714 84.0363   2
 -10  12   8 1324.80 141.841   2
 -10  12   7 29.2951 54.4296   2
 -10  12   7 72.7119 69.4055   3
 -10  12   6 106.805 62.8686   2
 -10  12   6 69.2370 63.6119   3
 -10  12   5 4.69292 50.1533   2
 -10  12   5 110.385 67.3351   3
 -10  12   4 31.6000 55.7020   3
 -10  12   3 168.801 62.2864   3
 -10  12   2 539.726 89.0056   3
 -10  12   1 185.731 61.5920   3
 -10  12   0 1216.32 120.618   3
 -10  12  -1 373.309 73.2104   3
 -10  12  -2 720.115 96.6256   3
 -10  12  -3 37.6458 48.8837   3
 -10  12  -4-26.2303 52.6945   3
  10  12   4 64.6566 61.5719   1
 -10  12  -5 251.021 65.5712   3
  10  12   5 307.773 78.6199   1
 -10  12  -6 815.642 105.121   3
  10  12   6 1012.43 127.967   1
 -10  12  -7 212.632 71.1021   3
  10  12   7 204.441 70.6864   1
 -10  12  -8 1197.56 125.868   3
  10  12   8 1135.50 133.484   1
 -10  12  -9 79.5400 56.0303   3
  10  12   9 0.55597 70.0753   1
 -10  12 -10 274.430 74.2502   3
  10  12  10 438.029 107.946   1
 -10  12 -11 242.904 75.3188   3
  10  12  11 200.644 82.6512   1
 -10  13  13 47.6419 76.8918   2
 -10  13  12 234.221 92.8690   2
 -10  13  11 613.215 117.971   2
 -10  13  10 27.4119 69.5960   2
 -10  13   9 389.935 96.3059   2
 -10  13   8 247.504 81.4795   2
 -10  13   7 619.483 102.977   2
 -10  13   7 592.181 102.939   3
 -10  13   6 344.030 79.0346   2
 -10  13   6 475.002 89.4320   3
 -10  13   5 295.745 79.3508   2
 -10  13   5 252.449 70.9137   3
 -10  13   4-8.84343 62.5850   3
 -10  13   3 983.772 115.404   3
 -10  13   2-27.2952 54.7938   3
 -10  13   1 1847.65 151.665   3
 -10  13   0 39.6862 55.0247   3
 -10  13  -1 278.624 70.4250   3
 -10  13  -2 63.5031 57.8219   3
 -10  13  -3 101.505 60.6797   3
 -10  13  -4-30.0066 52.2561   3
 -10  13  -5 73.5596 54.1359   3
 -10  13  -6 186.509 68.2253   3
 -10  13  -7 486.131 93.3344   3
 -10  13  -8 245.000 78.0452   3
  10  13   8 248.396 84.7516   1
 -10  13  -9 642.525 103.995   3
  10  13   9 801.689 123.112   1
 -10  13 -10 209.382 74.0123   3
  10  13  10 273.408 95.0010   1
 -10  13 -11 600.287 104.567   3
 -10  14  13 60.4983 73.3080   2
 -10  14  12 117.881 86.3514   2
 -10  14  11-23.5528 74.1121   2
 -10  14  10 550.257 111.920   2
 -10  14   9 73.9391 71.3661   2
 -10  14   9 67.2711 61.8376   4
 -10  14   8 476.832 94.7318   2
 -10  14   7-21.2086 54.6649   3
 -10  14   7 56.9142 66.8643   2
 -10  14   6 274.693 78.7800   3
 -10  14   6 336.910 79.6289   2
 -10  14   5 37.6119 58.3722   3
 -10  14   4 81.5714 61.9743   3
 -10  14   3 226.274 77.1738   3
 -10  14   2 1378.54 136.497   3
 -10  14   1 133.744 73.1567   3
 -10  14   0 767.502 108.465   3
 -10  14  -1 13.9851 55.4460   3
 -10  14  -2-22.4882 60.5124   3
 -10  14  -3 13.0256 51.4775   3
 -10  14  -4 1.53811 50.0340   3
 -10  14  -5 14.8202 55.9833   3
 -10  14  -6 485.121 87.9962   3
 -10  14  -7 1.04158 58.7614   3
 -10  14  -8 802.274 115.390   3
 -10  14  -9 20.1915 55.5543   3
 -10  14 -10 277.044 83.8429   3
 -10  14 -11 45.2968 63.5926   3
 -10  14 -12 124.226 75.3968   3
 -10  15  12 321.492 103.686   2
 -10  15  11 221.324 86.9949   2
 -10  15  10 35.3833 64.6372   2
 -10  15  10 150.774 74.4139   4
 -10  15   9 319.721 88.1621   2
 -10  15   9 236.145 77.2386   4
 -10  15   8 29.6841 66.7064   2
 -10  15   7 698.774 112.686   3
 -10  15   7 621.962 101.871   2
 -10  15   6 197.632 77.3682   3
 -10  15   5 31.9783 60.8309   3
 -10  15   4 233.562 73.4505   3
 -10  15   3-21.3580 57.2124   3
 -10  15   2 324.581 78.6900   3
 -10  15   1 593.475 97.5087   3
 -10  15   0 133.780 65.1129   3
 -10  15  -1 1535.43 145.271   3
 -10  15  -2-66.6197 66.8943   3
 -10  15  -3 10.6204 49.4912   3
 -10  15  -4 448.657 92.7112   3
 -10  15  -5-5.12501 51.4631   3
 -10  15  -6 135.351 70.0509   3
 -10  15  -7 439.440 90.2663   3
 -10  15  -8 216.322 73.6712   3
 -10  15  -9 784.234 113.213   3
 -10  15 -10 49.5761 59.1580   3
 -10  15 -11 40.7485 59.6662   3
 -10  15 -12 103.841 73.8743   3
 -10  16  12 150.416 91.0872   2
 -10  16  11 54.1965 72.1478   2
 -10  16  11-14.7173 64.3788   4
 -10  16  10 161.090 79.9499   2
 -10  16  10 173.649 77.7033   4
 -10  16   9-31.4817 60.1543   2
 -10  16   8 364.957 92.6662   3
 -10  16   8 308.458 83.5501   2
 -10  16   7 10.0915 63.3602   3
 -10  16   7 151.063 71.2396   2
 -10  16   6 120.990 64.7542   3
 -10  16   5 126.971 69.3982   3
 -10  16   4 63.0763 65.3846   3
 -10  16   3-14.5690 66.9744   3
 -10  16   2 617.924 100.700   3
 -10  16   1-4.24497 49.0060   3
 -10  16   0 655.164 101.713   3
 -10  16  -1 184.350 74.2032   3
 -10  16  -2 92.6085 61.6654   3
 -10  16  -3 180.870 67.5145   3
 -10  16  -4 427.212 92.6861   3
 -10  16  -5 40.3399 60.3634   3
 -10  16  -6 222.147 71.0484   3
 -10  16  -7 327.416 89.0528   3
 -10  16  -8 402.919 99.8115   3
 -10  16  -9 218.020 88.6132   3
 -10  16 -10 280.317 111.587   3
 -10  16 -11 85.6026 66.2152   3
 -10  17  12 111.012 79.5021   2
 -10  17  12 375.417 105.976   4
 -10  17  11-83.9652 74.1904   2
 -10  17  11 92.3222 77.7108   4
 -10  17  10 173.425 71.1920   2
 -10  17  10 294.090 89.7416   4
 -10  17   9 358.947 88.9989   2
 -10  17   8-19.9237 54.4979   3
 -10  17   8-52.3398 61.6485   2
 -10  17   7 84.0179 68.1049   3
 -10  17   6 155.584 77.3705   3
 -10  17   5 426.012 96.9474   3
 -10  17   4 691.283 110.156   3
 -10  17   3-107.974 71.9253   3
 -10  17   2 411.267 94.6003   3
 -10  17   1 432.275 89.2225   3
 -10  17   0-5.08471 58.7193   3
 -10  17  -1 304.207 83.8591   3
 -10  17  -2 246.964 73.7146   3
 -10  17  -3 293.175 78.8539   3
 -10  17  -4 373.951 80.4290   3
 -10  17  -5 97.9762 73.9755   3
 -10  17  -6 581.016 106.019   3
 -10  17  -7 564.571 105.128   3
 -10  17  -8-12.7702 55.0532   3
 -10  17  -9 289.311 84.2218   3
 -10  17 -10 221.013 94.1573   3
 -10  18  12 122.276 83.3446   4
 -10  18  11-10.6559 65.7535   2
 -10  18  11 24.2837 68.5356   4
 -10  18  10 100.851 74.3073   2
 -10  18   9 32.4564 65.3639   2
 -10  18   8 193.253 89.4659   3
 -10  18   7 368.040 94.0457   3
 -10  18   6 94.7068 66.0882   3
 -10  18   5 19.9174 67.4714   3
 -10  18   4 39.9968 60.8900   3
 -10  18   3 96.4532 70.6955   3
 -10  18   2 406.540 95.3173   3
 -10  18   1-94.0853 68.1482   3
 -10  18   0 155.040 73.3388   3
 -10  18  -1 109.241 68.1104   3
 -10  18  -2-114.515 80.5390   3
 -10  18  -3 313.779 81.1640   3
 -10  18  -4-49.1222 73.1257   3
 -10  18  -5 473.152 93.2094   3
 -10  18  -6 237.103 82.9038   3
 -10  18  -7 92.6640 72.9352   3
 -10  18  -8 201.315 78.4266   3
 -10  18  -9 108.266 71.5392   3
 -10  19  11 213.000 83.6736   2
 -10  19  11 155.662 80.5258   4
 -10  19  10 151.211 74.1421   2
 -10  19   7 340.968 102.268   3
 -10  19   6 463.156 99.1121   3
 -10  19   5 46.4648 74.7340   3
 -10  19   4 457.971 98.5308   3
 -10  19   3 113.436 60.4321   3
 -10  19   2 716.752 116.441   3
 -10  19   1 328.252 82.8390   3
 -10  19   0 105.264 76.3506   3
 -10  19  -1 114.057 60.9659   3
 -10  19  -2 227.865 80.1026   3
 -10  19  -3 221.499 79.4843   3
 -10  19  -4 307.287 87.0695   3
 -10  19  -5 52.2368 72.4923   3
 -10  19  -6-15.0148 68.9443   3
 -10  19  -7 97.4188 76.9498   3
 -10  19  -8-22.7558 71.6891   3
 -10  20   5 656.495 118.884   3
 -10  20   4-66.7493 79.8528   3
 -10  20   3 72.5402 68.2500   3
 -10  20   2-77.6600 72.7022   3
 -10  20   1-59.6932 63.2635   3
 -10  20   0 99.6424 78.7227   3
 -10  20  -1 162.561 74.8584   3
 -10  20  -2-43.0308 65.8799   3
 -10  20  -3 265.545 90.0388   3
 -10  20  -4 186.395 81.5897   3
 -10  20  -5 753.094 115.797   3
 -10  20  -6 70.4308 62.6477   3
 -10  21   3 104.393 78.2861   3
 -10  21   2 68.6584 72.9890   3
 -10  21   1 54.4393 67.8155   3
 -10  21   0 21.8190 59.1676   3
 -10  21  -1 126.541 79.7986   3
 -10  21  -2 76.3178 63.1750   3
 -10  21  -3-16.5757 66.0835   3
  11   0  -5 26.8729 50.0430   1
  11   0  -4 67.6104 50.8078   1
  11   0  -3-41.6428 51.2319   1
  11   0  -2 390.754 87.8628   1
  11   0  -1 72.1856 53.2893   1
  11   0   0 1460.56 137.902   1
  11   0   1-9.65708 59.6512   1
  11   0   2-154.738 81.0558   1
  11   0   3-63.3854 68.3481   1
  11   0   4 106.715 74.0401   1
  11   0   5-84.6568 75.8031   1
  11   0   6 387.576 93.1361   1
  11   0   7-130.799 73.3260   1
  11   0   8 1695.19 164.619   1
  11   0   9 20.3302 70.6082   1
  11   0  10 704.483 123.628   1
  11   0  11 24.9473 74.9362   1
  11   1  -5 72.6617 50.5160   1
  11  -1  -5 211.781 60.9184   1
  11   1  -4 1069.49 110.183   1
  11  -1  -4 1083.85 109.840   1
  11   1  -3 342.988 74.2652   1
  11  -1  -3 410.893 82.4527   1
  11  -1  -2 64.1112 52.6631   1
  11   1  -2-47.9629 55.2240   1
  11  -1  -1 1119.84 119.254   1
  11   1  -1 1212.72 125.564   1
  11  -1   0 103.026 61.5044   1
  11   1   0 192.703 74.5908   1
  11  -1   1 131.334 68.9330   1
  11   1   1 115.199 73.0588   1
  11   1   2-41.4639 66.2831   1
  11  -1   2-50.2377 78.6170   1
  11   1   3 342.749 85.3891   1
  11  -1   3 126.448 69.3310   1
  11   1   4-123.465 79.5157   1
  11  -1   4-23.7695 72.8657   1
  11   1   5 157.190 70.5810   1
  11  -1   5 109.401 67.4006   1
  11   1   6 51.6816 64.5541   1
  11  -1   6-41.3652 63.4561   1
  11   1   7 429.144 93.0841   1
  11  -1   7 298.763 86.9944   1
  11   1   8 28.8087 61.0592   1
  11  -1   8-57.7733 73.2538   1
  11   1   9 371.376 92.2080   1
  11  -1   9 363.926 103.294   1
  11   1  10-1.43973 76.4929   1
  11  -1  10-56.0431 87.3053   1
  11   1  11-84.0973 88.8210   1
  11  -1  11-122.061 75.5379   1
  11  -2  -5 28.7423 47.4596   1
  11   2  -5 6.53664 44.0509   1
  11  -2  -4-30.0473 55.4009   1
  11   2  -4 78.9733 57.1367   1
  11  -2  -3 1144.61 117.367   1
  11   2  -3 1346.34 121.622   1
  11   2  -2 715.637 96.8041   1
  11  -2  -2 825.492 104.680   1
  11   2  -1 138.788 67.3085   1
  11  -2  -1-57.7367 65.5523   1
  11   2   0 358.753 84.2594   1
  11  -2   0 464.655 91.8828   1
  11   2   1 59.9278 61.5977   1
  11  -2   1 298.434 79.7473   1
  11  -2   2 1121.03 128.328   1
  11   2   2 1154.43 127.156   1
  11  -2   3 148.474 69.1302   1
  11   2   3 155.759 68.4160   1
  11  -2   4-108.700 80.9678   1
  11   2   4-147.914 80.4752   1
  11   2   5 454.430 99.5507   1
  11  -2   5 208.476 79.4529   1
  11   2   6 673.842 110.107   1
  11  -2   6 675.428 110.215   1
  11   2   7 141.913 76.9090   1
  11  -2   7 31.8993 70.3615   1
  11   2   8 818.297 126.846   1
  11  -2   8 798.246 125.193   1
  11   2   9 86.6111 70.1169   1
  11  -2   9-34.0368 83.1519   1
  11   2  10 658.977 116.103   1
  11  -2  10 622.241 119.106   1
  11   2  11 55.6929 77.8309   1
  11  -2  11 69.1312 88.8386   1
  11   3  -5-9.61072 42.1855   1
  11  -3  -4 501.207 80.9316   1
  11   3  -4 339.305 71.9632   1
  11   3  -3 27.1797 51.9840   1
  11  -3  -3-58.7940 62.6758   1
  11   3  -2 114.703 61.6992   1
  11  -3  -2 101.841 60.3825   1
  11  -3  -1 288.629 74.9118   1
  11   3  -1 371.388 83.3315   1
  11  -3   0-22.6024 62.2678   1
  11   3   0 50.9280 60.9374   1
  11  -3   1 310.655 80.8271   1
  11   3   1 384.738 83.1258   1
  11   3   2 586.606 99.4202   1
  11  -3   2 315.344 79.0350   1
  11   3   3 84.7130 69.8839   1
  11  -3   3-30.1793 71.6734   1
  11   3   4 308.298 90.5721   1
  11  -3   4-8.48330 73.2828   1
  11   3   5 1076.57 131.832   1
  11  -3   5 1110.39 138.850   1
  11  -3   6-169.857 91.4282   1
  11   3   6 79.8059 63.1732   1
  11   3   7 64.1184 75.4860   1
  11  -3   7-116.989 89.7668   1
  11   3   8 44.9568 67.9041   1
  11  -3   8-55.8546 82.8647   1
  11  -3   9-37.2607 80.1972   1
  11   3   9 34.3437 68.2148   1
  11  -3  10-75.4681 74.9529   1
  11   3  10 140.296 78.5980   1
  11  -3  11-27.3157 85.3878   1
  11   3  11 46.8968 77.6587   1
  11   4  -5 573.166 84.9816   1
  11  -4  -4-11.8742 53.0475   1
  11   4  -4 28.0531 48.7943   1
  11   4  -3 58.8325 55.7319   1
  11  -4  -3 106.693 57.1754   1
  11  -4  -2 261.833 71.6364   1
  11   4  -2 399.145 78.7152   1
  11   4  -1 891.982 111.146   1
  11  -4  -1 840.413 107.906   1
  11   4   0 595.160 96.8974   1
  11  -4   0 486.864 91.6486   1
  11  -4   1 366.342 82.3163   1
  11   4   1 582.204 97.1208   1
  11   4   2 89.2078 61.4191   1
  11  -4   2 36.1782 60.2008   1
  11   4   3 409.403 95.5046   1
  11  -4   3 301.639 86.1904   1
  11  -4   4-82.9901 80.2630   1
  11   4   4 14.9102 70.2957   1
  11  -4   5 303.114 92.0127   1
  11   4   5 396.059 102.951   1
  11  -4   6-84.5236 81.3015   1
  11   4   6 40.3385 65.4306   1
  11  -4   7 40.5313 82.6976   1
  11   4   7 293.282 89.7133   1
  11   4   8 724.337 123.967   1
  11  -4   8 312.861 89.3564   1
  11   4   9 192.258 95.8406   1
  11  -4   9-51.7755 72.9064   1
  11  -4  10 145.680 85.0676   1
  11   4  10 290.033 94.6623   1
  11   5  -5-4.74248 42.8425   1
  11  -5  -4 1074.64 112.751   1
  11   5  -4 1127.24 110.067   1
  11  -5  -3 66.8825 54.5659   1
  11   5  -3 78.8281 51.4160   1
  11  -5  -2-43.8330 59.6242   1
  11   5  -2 103.797 55.2507   1
  11  -5  -1-95.0598 67.7068   1
  11   5  -1 95.6720 66.0803   1
  11   5   0 63.5041 59.3637   1
  11  -5   0-0.06867 65.3303   1
  11   5   1 123.824 69.7132   1
  11  -5   1-64.1845 72.3017   1
  11   5   2 361.726 88.2458   1
  11  -5   2 255.053 75.9594   1
  11   5   3 160.780 80.8817   1
  11   5   4 1369.55 143.075   1
  11   5   5 58.8409 74.1736   1
  11   5   6 134.264 69.5015   1
  11   5   7 685.379 113.263   1
  11   5   8 35.1092 79.0362   1
  11  -5   8-166.010 87.0443   1
  11   5   9 24.0918 73.0955   1
  11  -5   9-21.6368 78.1801   1
  11  -5  10 102.656 71.2651   1
  11   5  10 153.266 85.7968   1
  11   6  -4 194.024 59.3027   1
  11  -6  -4 106.977 57.1208   1
  11   6  -3 728.843 99.5448   1
  11  -6  -3 518.197 84.7073   1
  11  -6  -2-104.250 66.4534   1
  11   6  -2-5.97182 54.2385   1
  11   6  -1 74.9682 59.0240   1
  11   6   0 81.4521 66.4043   1
  11   6   1 174.327 71.5804   1
  11   6   2 49.7515 69.0370   1
  11   6   3 1721.10 157.326   1
  11   6   4 168.819 73.4747   1
  11   6   5 372.395 95.3722   1
  11   6   6 107.432 65.0389   1
  11   6   7 167.657 79.2397   1
  11   6   8 47.8164 77.1650   1
  11   6   9 226.468 91.2267   1
  11   6  10 618.324 121.116   1
  11  -7  -4 800.658 99.6509   1
  11   7  -3 476.861 84.0260   1
  11   7  -2 1674.13 139.299   1
  11   7  -1 702.887 103.922   1
  11   7   0 134.342 65.8035   1
  11   7   1 84.8880 65.2990   1
  11   7   2 728.213 108.734   1
  11   7   3 5.99724 63.2565   1
  11   7   4 859.183 116.668   1
  11   7   5 90.8850 77.4446   1
  11   7   6 566.436 102.262   1
  11   7   7 127.750 79.2345   1
  11   7   8 174.894 88.7450   1
  11   7   9 250.203 99.3217   1
  11   7  10 322.714 106.884   1
 -11   8   4-38.7204 48.9851   3
 -11   8   3 1460.12 128.790   3
  11   8  -2 0.79172 49.7030   1
 -11   8   2 16.8883 42.9761   3
 -11   8   1 25.3411 47.3309   3
  11   8  -1 81.5854 63.4012   1
  11   8   0 340.318 80.4540   1
  11   8   1 79.8695 67.1290   1
  11   8   2 68.0929 67.9001   1
  11   8   3 873.490 118.068   1
  11   8   4 9.66239 57.1510   1
  11   8   5 448.022 99.5788   1
  11   8   6 267.003 80.8676   1
  11   8   7 63.6048 79.1115   1
  11   8   8 302.634 96.9136   1
  11   8   9-18.7556 72.7725   1
 -11   9   5 113.958 61.1504   3
 -11   9   4 567.743 88.5726   3
 -11   9   3-10.2623 48.8914   3
 -11   9   2 441.928 77.9574   3
  11   9  -1 27.1126 58.9094   1
 -11   9   1 12.5682 45.7418   3
 -11   9   0-38.3317 50.4851   3
  11   9   0-45.5175 55.6820   1
 -11   9  -1 72.1439 49.3078   3
  11   9   1 149.611 64.3431   1
 -11   9  -2 371.217 75.4931   3
  11   9   2 419.449 89.2185   1
  11   9   3 310.749 80.6656   1
  11   9   4 1018.68 127.608   1
  11   9   5 85.0257 77.4518   1
  11   9   6 646.356 109.690   1
  11   9   7 355.733 93.3716   1
  11   9   8 12.2322 72.0599   1
  11   9   9 172.944 91.6563   1
 -11  10   5 358.387 78.2972   3
 -11  10   4-72.9803 53.6431   3
 -11  10   3 6.45852 45.3933   3
 -11  10   2 604.190 90.5669   3
 -11  10   1 76.8479 54.1968   3
 -11  10   0 155.294 59.8766   3
  11  10   1 612.530 99.0513   1
 -11  10  -1 687.864 93.3542   3
 -11  10  -2 644.739 93.5836   3
  11  10   2 450.207 89.5918   1
 -11  10  -3 246.611 67.9175   3
  11  10   3 271.677 78.6031   1
 -11  10  -4 45.2935 48.3444   3
  11  10   4 93.7077 67.5407   1
 -11  10  -5 22.0968 50.4518   3
  11  10   5 59.6671 74.6784   1
  11  10   6 137.534 75.6275   1
  11  10   7-35.3188 73.3877   1
  11  10   8 99.5317 82.8248   1
 -11  11   6 15.2980 55.1129   3
 -11  11   5-48.8309 53.0653   3
 -11  11   4 461.801 83.7908   3
 -11  11   3 68.4797 54.1275   3
 -11  11   2 221.969 64.8738   3
 -11  11   1 606.039 92.0848   3
 -11  11   0 8.12807 45.4203   3
 -11  11  -1 1028.02 113.410   3
 -11  11  -2 52.5473 48.8800   3
  11  11   3 148.466 73.5694   1
 -11  11  -3 45.1494 44.8363   3
 -11  11  -4 374.521 77.3851   3
  11  11   4 446.709 101.953   1
 -11  11  -5 131.951 60.5069   3
  11  11   5 87.2429 71.7098   1
 -11  11  -6 334.278 73.6533   3
  11  11   6 439.744 97.1487   1
 -11  11  -7 209.295 70.8894   3
  11  11   7 439.250 103.291   1
  11  11   8-0.84564 71.9649   1
 -11  12  12 394.450 112.305   2
 -11  12  11 239.937 92.6499   2
 -11  12  10 241.427 92.4198   2
 -11  12   9 215.104 89.0117   2
 -11  12   6 184.046 67.8151   3
 -11  12   5 240.050 73.6337   3
 -11  12   4-75.8729 60.9007   3
 -11  12   3 96.4631 60.7943   3
 -11  12   2 261.238 78.3765   3
 -11  12   1 291.752 75.0006   3
 -11  12   0 1312.60 130.477   3
 -11  12  -1-43.0001 56.3553   3
 -11  12  -2 228.040 71.1473   3
 -11  12  -3-25.7870 56.8502   3
 -11  12  -4 39.3177 49.4878   3
  11  12   5 56.0986 72.4909   1
 -11  12  -5 9.96483 56.4196   3
 -11  12  -6-20.6280 55.0729   3
  11  12   6 99.0372 57.4116   1
 -11  12  -7 61.0809 56.5405   3
  11  12   7 82.5712 81.4709   1
 -11  12  -8 234.786 70.1292   3
 -11  12  -9 115.814 66.0715   3
 -11  13  11 84.6288 86.2830   2
 -11  13  10 264.833 95.0055   2
 -11  13   9 1078.69 142.401   2
 -11  13   6 22.8507 55.7434   3
 -11  13   5-10.1158 60.3334   3
 -11  13   4-11.1157 62.7388   3
 -11  13   3 139.671 69.1125   3
 -11  13   2 249.018 73.3179   3
 -11  13   1 318.743 77.0638   3
 -11  13   0 334.553 76.4870   3
 -11  13  -1 334.904 76.4046   3
 -11  13  -2 96.1330 64.1156   3
 -11  13  -3-15.1391 60.1513   3
 -11  13  -4-12.1537 52.8225   3
 -11  13  -5-5.91114 57.7776   3
 -11  13  -6-46.9187 53.5022   3
 -11  13  -7 719.107 107.479   3
 -11  13  -8 7.40561 57.6174   3
 -11  13  -9 2.91884 55.8509   3
 -11  13 -10 97.0402 69.4602   3
 -11  14  11 534.805 121.457   2
 -11  14  10 641.027 122.433   2
 -11  14   6 149.262 78.8749   3
 -11  14   5-13.1944 64.6805   3
 -11  14   4 66.1209 54.9592   3
 -11  14   3 412.980 84.6859   3
 -11  14   2 849.256 116.913   3
 -11  14   1 31.5949 62.3800   3
 -11  14   0 559.438 98.0144   3
 -11  14  -1 370.746 80.5827   3
 -11  14  -2 437.369 87.4214   3
 -11  14  -3-186.564 79.3828   3
 -11  14  -4 66.5135 54.6139   3
 -11  14  -5-99.9818 70.0637   3
 -11  14  -6 76.9020 58.9885   3
 -11  14  -7 114.320 56.4938   3
 -11  14  -8 320.979 85.1488   3
 -11  14  -9 11.5316 60.1562   3
 -11  14 -10 504.604 102.071   3
 -11  14 -11 211.262 81.7399   3
 -11  15  11 326.736 104.371   2
 -11  15   7 1053.59 139.977   3
 -11  15   6 36.2379 62.1055   3
 -11  15   5-13.1954 52.1519   3
 -11  15   4-24.5709 61.2732   3
 -11  15   3 508.083 101.562   3
 -11  15   2-3.43998 53.0842   3
 -11  15   1 1058.17 128.034   3
 -11  15   0 22.0859 61.1421   3
 -11  15  -1 28.0768 55.9508   3
 -11  15  -2 193.137 71.8720   3
 -11  15  -3-53.1930 69.2564   3
 -11  15  -4-58.0397 69.0243   3
 -11  15  -5 312.586 79.0836   3
 -11  15  -6-21.7334 65.8253   3
 -11  15  -7 193.552 71.1939   3
 -11  15  -8-48.4402 60.3320   3
 -11  15  -9 182.791 73.6084   3
 -11  15 -10 125.902 71.5024   3
 -11  16   7 94.2716 67.5552   3
 -11  16   6 215.360 86.6152   3
 -11  16   5 86.3929 75.5551   3
 -11  16   4 17.3523 52.8423   3
 -11  16   3 333.810 85.8955   3
 -11  16   2 142.267 74.9428   3
 -11  16   1 355.157 82.0729   3
 -11  16   0 738.661 113.917   3
 -11  16  -1 135.075 74.5496   3
 -11  16  -2 222.563 81.0690   3
 -11  16  -3-69.2184 69.6944   3
 -11  16  -4-85.6470 72.1318   3
 -11  16  -5 246.533 77.2715   3
 -11  16  -6 79.7051 64.8852   3
 -11  16  -7 47.0349 67.3508   3
 -11  16  -8 399.348 95.5484   3
 -11  16  -9 80.9580 73.4782   3
 -11  17   7 212.812 90.3743   3
 -11  17   6 144.054 71.1980   3
 -11  17   5 2.79338 63.4812   3
 -11  17   4 111.448 76.1185   3
 -11  17   3 0.75607 53.8697   3
 -11  17   2 3.64221 63.0057   3
 -11  17   1 272.167 82.7033   3
 -11  17   0 109.281 67.5178   3
 -11  17  -1 168.665 73.1367   3
 -11  17  -2 65.5603 70.3003   3
 -11  17  -3 16.2917 55.9971   3
 -11  17  -4 300.300 90.8048   3
 -11  17  -5 105.349 67.5145   3
 -11  17  -6 46.3197 57.6359   3
 -11  17  -7 118.591 70.2991   3
 -11  18   5 515.054 106.480   3
 -11  18   4 66.0472 74.1243   3
 -11  18   3 297.859 88.7050   3
 -11  18   2 247.807 83.5162   3
 -11  18   1 18.5752 60.6283   3
 -11  18   0 50.1755 68.2652   3
 -11  18  -1-19.5704 57.8479   3
 -11  18  -2 299.887 92.1989   3
 -11  18  -3 75.4397 57.7522   3
 -11  18  -4-28.9518 66.2177   3
 -11  18  -5 246.215 93.2465   3
 -11  18  -6 47.7147 71.6203   3
 -11  19   2 11.0970 62.9231   3
 -11  19   1-16.2714 73.3378   3
 -11  19   0 290.535 95.9837   3
 -11  19  -1 201.647 75.4995   3
 -11  19  -2 488.707 106.544   3
 -11  19  -3-104.256 80.2445   3
  12   0  -3 18.4599 57.3290   1
  12   0  -2 583.706 99.2364   1
  12   0  -1 31.0542 61.2341   1
  12   0   0 532.754 105.538   1
  12   0   1 20.3693 61.0126   1
  12   0   2 22.8663 55.7385   1
  12   0   3-130.819 80.6098   1
  12   0   4 68.7493 65.1754   1
  12   0   5-58.6393 75.6098   1
  12   0   6 299.365 96.4778   1
  12   0   7 56.6491 85.3811   1
  12   1  -3 129.338 65.6010   1
  12  -1  -3 74.8816 56.5847   1
  12   1  -2-46.3767 49.9278   1
  12  -1  -2 28.9689 53.6360   1
  12   1  -1 800.814 111.104   1
  12  -1  -1 1096.33 127.699   1
  12  -1   0 84.3114 63.5847   1
  12   1   0 136.358 69.4459   1
  12  -1   1 513.453 95.5443   1
  12   1   1 474.513 102.133   1
  12  -1   2 208.272 74.8175   1
  12   1   2 177.653 70.2635   1
  12  -1   3 112.572 77.9956   1
  12   1   3 286.261 90.9734   1
  12  -1   4-0.08403 66.4593   1
  12   1   4-78.5664 67.0044   1
  12  -1   5 59.6142 67.1265   1
  12   1   5 419.435 104.097   1
  12   1   6-50.7353 73.8223   1
  12  -1   6-56.2654 77.8764   1
  12   1   7 876.099 133.770   1
  12  -1   7 433.072 108.997   1
  12   2  -3 377.440 78.9373   1
  12  -2  -3 421.645 82.5968   1
  12  -2  -2 494.125 87.3052   1
  12   2  -2 528.037 94.9672   1
  12  -2  -1-1.92005 59.5056   1
  12   2  -1 100.942 65.6734   1
  12  -2   0 667.009 109.658   1
  12   2   0 710.035 106.577   1
  12  -2   1-40.5885 66.9923   1
  12   2   1-50.3414 60.6056   1
  12  -2   2-142.827 79.2228   1
  12   2   2 82.0698 64.8697   1
  12  -2   3 14.6348 70.1605   1
  12   2   3 135.519 80.8191   1
  12  -2   4 32.9889 70.3378   1
  12   2   4 83.1134 70.2271   1
  12  -2   5-98.9706 71.4026   1
  12   2   5 47.3518 77.7173   1
  12  -2   6 102.409 76.1376   1
  12   2   6 171.861 80.7435   1
  12  -2   7-127.742 82.4773   1
  12   2   7 64.1747 66.8871   1
  12  -3  -3 136.079 59.6745   1
  12   3  -3 161.123 60.7408   1
  12   3  -2 121.967 68.3860   1
  12  -3  -2 103.201 66.1326   1
  12   3  -1 311.308 80.0765   1
  12  -3  -1 108.354 67.2532   1
  12   3   0 62.4446 59.8470   1
  12  -3   0-79.6107 71.8816   1
  12   3   1 438.301 93.3736   1
  12  -3   1 308.260 84.1258   1
  12   3   2 193.794 76.8956   1
  12  -3   2 226.251 87.2978   1
  12   3   3 105.682 76.0871   1
  12  -3   3-48.1663 70.0315   1
  12  -3   4 94.2520 78.6784   1
  12   3   4 250.616 89.7806   1
  12  -3   5-28.0652 73.1338   1
  12   3   5 116.331 80.8700   1
  12  -3   6-1.10616 73.8032   1
  12   3   6-21.6851 57.0195   1
  12  -3   7 143.315 86.4381   1
  12   3   7 217.925 87.1174   1
  12  -4  -3 594.492 92.8366   1
  12   4  -3 643.962 96.4680   1
  12  -4  -2 163.741 71.0843   1
  12   4  -2 218.186 73.5889   1
  12  -4  -1 117.707 71.7448   1
  12   4  -1 183.859 68.4240   1
  12   4   0 41.7892 56.8567   1
  12  -4   0-111.977 75.5498   1
  12  -4   1 523.491 97.5571   1
  12   4   1 537.188 99.9586   1
  12   4   2 280.849 83.0200   1
  12  -4   2 152.995 77.0142   1
  12   4   3 301.924 89.8951   1
  12  -4   3 54.1305 62.9181   1
  12   4   4 241.131 89.7299   1
  12  -4   4-11.1611 79.8155   1
  12   4   5 98.9724 76.9157   1
  12  -4   5-65.6528 85.9648   1
  12   4   6 184.959 85.0197   1
  12  -4   6 92.3455 82.8353   1
  12   4   7 37.4243 79.8503   1
  12  -4   7-77.7935 91.9614   1
  12   5  -3 240.316 76.5881   1
  12  -5  -3 175.656 69.0018   1
  12   5  -2 98.9020 61.5570   1
  12  -5  -2-30.8779 62.7419   1
  12  -5  -1-146.871 77.8349   1
  12   5  -1-41.1274 61.3041   1
  12  -5   0-26.1770 68.1370   1
  12   5   0 137.460 66.1903   1
  12  -5   1 96.4240 59.8139   1
  12   5   1 266.035 76.7894   1
  12   5   2 233.088 77.2571   1
  12  -5   2 57.6604 67.9316   1
  12  -5   3-80.9600 81.7837   1
  12   5   3 222.412 86.8820   1
  12  -5   4 367.080 91.4628   1
  12   5   4 665.604 120.351   1
  12  -5   5-1.27061 69.4741   1
  12   5   5 167.686 74.2051   1
  12  -5   6 72.0123 76.6034   1
  12   5   6 61.3229 81.5641   1
  12  -5   7 27.0447 68.0334   1
  12  -6  -3 623.016 96.7047   1
  12   6  -3 713.983 102.148   1
  12  -6  -2-72.6044 66.9784   1
  12   6  -2-23.9848 52.3700   1
  12   6  -1 129.124 71.5830   1
  12  -6  -1-70.7418 69.8216   1
  12  -6   0 13.5565 65.0302   1
  12   6   0-12.3747 53.2326   1
  12  -6   1-39.7011 68.4068   1
  12   6   1 26.6851 58.0513   1
  12  -6   2 74.3487 70.2642   1
  12   6   2-13.0989 56.5222   1
  12  -6   3 1179.04 146.614   1
  12   6   3 1412.49 150.473   1
  12   6   4 89.3016 83.9659   1
  12  -6   4-56.5307 69.5655   1
  12   6   5 595.056 108.457   1
  12  -6   5 566.285 114.865   1
  12   6   6 154.801 89.9159   1
  12  -6   6-126.399 93.6198   1
  12   7  -3-18.6162 54.3419   1
  12  -7  -3 31.0961 55.4944   1
  12  -7  -2-9.49960 68.5803   1
  12   7  -2 139.260 65.4922   1
  12   7  -1 118.382 68.9528   1
  12  -7  -1-166.169 75.8378   1
  12  -7   0-43.3764 59.5501   1
  12   7   0 7.30444 56.2332   1
  12  -7   1 155.893 80.5762   1
  12   7   1 156.314 66.2883   1
  12   7   2 507.091 93.5606   1
  12   7   3 9.86790 63.9266   1
  12   7   4 259.535 90.8482   1
  12   7   5 79.9551 72.4229   1
  12   7   6 404.820 109.149   1
  12  -8  -2-76.5031 61.8747   1
  12   8  -1 179.653 73.7534   1
  12   8   0 440.617 92.7148   1
  12   8   1-5.47536 55.9904   1
  12   8   2 114.488 67.3269   1
  12   8   3 657.715 111.493   1
  12   8   4 147.973 85.4863   1
  12   8   5 451.510 103.301   1
  12   9   0 10.2488 60.9936   1
  12   9   1 354.316 87.3696   1
  12   9   2 304.597 80.6745   1
  12   9   3 89.3523 67.2484   1
  12   9   4 660.784 116.311   1
  12   9   5 152.799 75.9546   1
  12  10   2 486.366 95.5448   1
  12  10   3 555.175 104.071   1
  12  10   4 15.5227 69.2837   1
 -12  15   6 143.934 75.7384   3
 -12  15   5 72.9580 64.2681   3
 -12  15   4 118.989 67.4174   3
 -12  15   3 87.0371 70.0795   3
 -12  15   2 91.2635 67.0122   3
 -12  15   1 174.480 77.8743   3
 -12  15   0 68.5813 63.8329   3
 -12  16   4 236.554 83.6568   3
 -12  16   3 71.2156 65.6839   3
 -12  16   2 72.0116 64.6595   3
 -12  16   1 192.957 81.0618   3
 -12  16   0 90.6408 68.1527   3
 -12  16  -1 40.9116 60.9484   3
 -12  16  -2-21.8795 57.2001   3
 -12  17   1 213.328 79.4413   3
 -12  17   0 17.7270 64.5003   3
 -12  17  -1 155.737 76.3764   3
  13   0  -1 5.82494 63.4128   1
  13   0   0 1418.62 153.354   1
  13   0   1 177.996 88.1630   1
  13   0   2-47.0063 79.0669   1
  13   0   3-18.5023 62.2856   1
  13   1  -1 124.222 80.2470   1
  13  -1  -1 81.5517 71.8307   1
  13   1   0 189.623 84.1805   1
  13  -1   0 146.168 80.1337   1
  13   1   1 423.959 107.815   1
  13  -1   1 302.504 96.6606   1
  13   1   2 2.24657 70.1362   1
  13  -1   2 93.0279 75.9237   1
  13   1   3 48.6417 64.8700   1
  13  -1   3 18.0676 75.3343   1
  13   2  -1 70.4530 70.5403   1
  13  -2  -1 81.9070 69.7327   1
  13   2   0 206.212 78.5247   1
  13  -2   0 93.6623 71.0942   1
  13  -2   1 101.081 71.7432   1
  13   2   1 197.248 79.3181   1
  13  -2   2 146.148 76.6340   1
  13   2   2 356.516 102.403   1
  13  -2   3 6.32432 72.3693   1
  13   2   3 149.072 82.2794   1
  13   3  -2-13.0544 62.1281   1
  13  -3  -1 130.250 70.0444   1
  13   3  -1 282.059 80.1888   1
  13   3   0 17.5817 61.1861   1
  13  -3   0-127.463 71.6145   1
  13   3   1 52.0400 59.4519   1
  13  -3   1 18.5015 58.5123   1
  13   3   2 106.228 70.1754   1
  13  -3   2 88.3764 76.8823   1
  13   3   3 131.014 85.8169   1
  13  -3   3-75.7284 74.6858   1
  13   4  -2-5.81991 61.0348   1
  13  -4  -1 49.7465 61.1342   1
  13   4  -1-12.0324 54.5610   1
  13  -4   0 281.370 84.0325   1
  13   4   0 393.624 91.2164   1
  13  -4   1-31.2288 71.6395   1
  13   4   1 105.716 69.9419   1
  13   4   2 81.0753 60.9380   1
  13  -4   2 28.3543 73.4582   1
  13  -4   3 352.603 100.204   1
  13   5  -2 152.642 69.9570   1
  13  -5  -1 115.272 61.1714   1
  13   5  -1 15.4376 53.1846   1
  13  -5   0 6.35625 64.4845   1
  13   5   0 35.4296 58.2268   1
  13  -5   1 1.14128 72.9236   1
  13   5   1 68.8369 66.0875   1
  13  -5   2 105.403 69.9780   1
  13   5   2 448.914 98.9937   1
  13  -5   3 46.2317 80.7340   1
  13   6  -2 4.42674 63.6173   1
  13   6  -1-2.97600 55.1391   1
  13  -6  -1-29.6056 69.3551   1
  13   6   0 80.6261 65.8030   1
  13  -6   0-32.7322 70.5324   1
  13  -6   1 220.032 82.3144   1
  13   6   1 130.403 71.5413   1
  13  -6   2-138.078 85.9017   1
  13   6   2-93.2803 71.6607   1
  13   7  -2 152.105 71.7066   1
  13  -7  -1-105.491 77.4104   1
  13   7  -1 97.4908 64.9029   1
  13  -7   0-32.1655 64.0973   1
  13   7   0-55.0405 67.0166   1
  13   7   1 77.9667 73.2609   1
  13  -7   1-9.56510 68.4321   1
  13  -7   2 151.211 80.6405   1
  13  -8  -1-89.4648 72.7057   1
  13  -8   0-116.704 71.3776   1
  13   8   0 16.9033 63.1538   1
  13  -8   1-70.3103 77.2919   1
  13   8   1 255.641 89.4857   1
  13  -9   0 62.4896 72.9274   1
  13  -9   1-74.4852 75.0402   1
   0   0   0    0.00    0.00   0
TITL B14-269-Zn in P2/c
REM P2/c (#13 in standard setting)
CELL 0.71073  10.006146  25.684666  19.091604  90.0000  90.7755  90.0000
ZERR   69.00   0.000261   0.000700   0.000551   0.0000   0.0028   0.0000
LATT  1
SYMM -x, y,-z+1/2
SFAC C H N O Zn
UNIT 69.00 69.00 69.00 69.00 69.00
TREF
HKLF 4
END
;
_shelx_hkl_checksum              77825
_olex2_submission_special_instructions 'No special instructions were received'
