
#======================================================================
# CRYSTAL DATA
#----------------------------------------------------------------------
data_VESTA_phase_1

_chemical_name_common                  'OCUNAC_manual'
_cell_length_a                         62.839901
_cell_length_b                         62.839901
_cell_length_c                         62.839901
_cell_angle_alpha                      60.000000
_cell_angle_beta                       60.000000
_cell_angle_gamma                      60.000000
_cell_volume                           175465.394863
_space_group_name_H-M_alt              'P 1'
_space_group_IT_number                 1

loop_
_space_group_symop_operation_xyz
   'x, y, z'

loop_
   _atom_site_label
   _atom_site_occupancy
   _atom_site_fract_x
   _atom_site_fract_y
   _atom_site_fract_z
   _atom_site_adp_type
   _atom_site_U_iso_or_equiv
   _atom_site_type_symbol
   Fe1        1.0     0.114230     0.283840     0.657700    Uiso  0.012670 Fe
   Fe2        1.0     0.306560     0.359630     0.530340    Uiso  0.012670 Fe
   C1         1.0     0.422400     0.460920     0.547230    Uiso  0.012670 C
   C2         1.0     0.361020     0.399550     0.512470    Uiso  0.012670 C
   C3         1.0     0.376030     0.414550     0.504030    Uiso  0.012670 C
   C4         1.0     0.316790     0.405210     0.427460    Uiso  0.012670 C
   C5         1.0     0.312270     0.382200     0.474890    Uiso  0.012670 C
   C6         1.0     0.310890     0.406410     0.451670    Uiso  0.012670 C
   C7         1.0     0.304580     0.430680     0.453040    Uiso  0.012670 C
   C8         1.0     0.185940     0.208370     0.648430    Uiso  0.012670 C
   C9         1.0     0.159360     0.253050     0.625010    Uiso  0.012670 C
   C10        1.0     0.182180     0.227950     0.624940    Uiso  0.012670 C
   C11        1.0     0.201450     0.223900     0.601430    Uiso  0.012670 C
   C12        1.0     0.162970     0.267990     0.705160    Uiso  0.012670 C
   C13        1.0     0.144040     0.299610     0.668310    Uiso  0.012670 C
   C14        1.0     0.158700     0.292400     0.685300    Uiso  0.012670 C
   C15        1.0     0.176810     0.261520     0.720830    Uiso  0.012670 C
   C16        1.0     0.203100     0.271990     0.732610    Uiso  0.012670 C
   C17        1.0     0.186750     0.279270     0.717260    Uiso  0.012670 C
   C18        1.0     0.168510     0.310160     0.681900    Uiso  0.012670 C
   C19        1.0     0.182220     0.303740     0.697570    Uiso  0.012670 C
   C20        1.0     0.284250     0.322640     0.620990    Uiso  0.012670 C
   C21        1.0     0.275200     0.313630     0.648410    Uiso  0.012670 C
   C22        1.0     0.322240     0.241940     0.536320    Uiso  0.012670 C
   C23        1.0     0.341660     0.273040     0.528300    Uiso  0.012670 C
   C24        1.0     0.339720     0.246720     0.539870    Uiso  0.012670 C
   C25        1.0     0.318890     0.217500     0.549380    Uiso  0.012670 C
   C26        1.0     0.077960     0.332570     0.668080    Uiso  0.012670 C
   C27        1.0     0.332990     0.197470     0.566150    Uiso  0.012670 C
   C28        1.0     0.354380     0.226380     0.555920    Uiso  0.012670 C
   C29        1.0     0.351110     0.202130     0.568810    Uiso  0.012670 C
   O1         1.0     0.425590     0.461030     0.502140    Uiso  0.012670 O
   O2         1.0     0.333270     0.368830     0.525250    Uiso  0.012670 O
   O3         1.0     0.408010     0.443520     0.484770    Uiso  0.012670 O
   O4         1.0     0.306370     0.383700     0.496730    Uiso  0.012670 O
   O5         1.0     0.360820     0.319690     0.471760    Uiso  0.012670 O
   O6         1.0     0.143410     0.256260     0.646810    Uiso  0.012670 O
   O7         1.0     0.092850     0.280980     0.646700    Uiso  0.012670 O
   O8         1.0     0.133960     0.283900     0.672770    Uiso  0.012670 O
   O9         1.0     0.142050     0.321490     0.650000    Uiso  0.012670 O
   O10        1.0     0.207970     0.249270     0.749400    Uiso  0.012670 O
   O11        1.0     0.212180     0.288670     0.727710    Uiso  0.012670 O
   O12        1.0     0.303790     0.339260     0.565560    Uiso  0.012670 O
   O13        1.0     0.258010     0.293460     0.702490    Uiso  0.012670 O
   O14        1.0     0.331120     0.290160     0.511110    Uiso  0.012670 O
   O15        1.0     0.277460     0.353320     0.536570    Uiso  0.012670 O
   O16        1.0     0.084100     0.308550     0.672270    Uiso  0.012670 O
   O17        1.0     0.157370     0.339070     0.599430    Uiso  0.012670 O
   H1         1.0     0.407290     0.476220     0.539020    Uiso  0.012670 H
   H2         1.0     0.340370     0.409170     0.515320    Uiso  0.012670 H
   H3         1.0     0.366490     0.435290     0.500730    Uiso  0.012670 H
   H4         1.0     0.321740     0.386950     0.425540    Uiso  0.012670 H
   H5         1.0     0.299990     0.432360     0.471310    Uiso  0.012670 H
   H6         1.0     0.171760     0.210610     0.666980    Uiso  0.012670 H
   H7         1.0     0.199500     0.238420     0.582900    Uiso  0.012670 H
   H8         1.0     0.155790     0.253740     0.708490    Uiso  0.012670 H
   H9         1.0     0.179980     0.242410     0.735570    Uiso  0.012670 H
   H10        1.0     0.165670     0.329170     0.666980    Uiso  0.012670 H
   H11        1.0     0.189610     0.317970     0.693940    Uiso  0.012670 H
   H12        1.0     0.272420     0.341070     0.610900    Uiso  0.012670 H
   H13        1.0     0.256650     0.325490     0.658350    Uiso  0.012670 H
   H14        1.0     0.310590     0.257300     0.524080    Uiso  0.012670 H
   H15        1.0     0.304830     0.214520     0.546900    Uiso  0.012670 H
   H16        1.0     0.368140     0.229280     0.558950    Uiso  0.012670 H
   H17        1.0     0.362600     0.187110     0.581310    Uiso  0.012670 H
   Fe3        1.0     0.283840     0.114230     0.944230    Uiso  0.012670 Fe
   Fe4        1.0     0.359630     0.306560     0.803480    Uiso  0.012670 Fe
   C30        1.0     0.460920     0.422400     0.569440    Uiso  0.012670 C
   C31        1.0     0.399550     0.361020     0.726960    Uiso  0.012670 C
   C32        1.0     0.414550     0.376030     0.705390    Uiso  0.012670 C
   C33        1.0     0.405210     0.316790     0.850540    Uiso  0.012670 C
   C34        1.0     0.382200     0.312270     0.830630    Uiso  0.012670 C
   C35        1.0     0.406410     0.310890     0.831040    Uiso  0.012670 C
   C36        1.0     0.430680     0.304580     0.811700    Uiso  0.012670 C
   C37        1.0     0.208370     0.185940     0.957260    Uiso  0.012670 C
   C38        1.0     0.253050     0.159360     0.962580    Uiso  0.012670 C
   C39        1.0     0.227950     0.182180     0.964940    Uiso  0.012670 C
   C40        1.0     0.223900     0.201450     0.973220    Uiso  0.012670 C
   C41        1.0     0.267990     0.162970     0.863890    Uiso  0.012670 C
   C42        1.0     0.299610     0.144040     0.888040    Uiso  0.012670 C
   C43        1.0     0.292400     0.158700     0.863600    Uiso  0.012670 C
   C44        1.0     0.261520     0.176810     0.840850    Uiso  0.012670 C
   C45        1.0     0.271990     0.203100     0.792300    Uiso  0.012670 C
   C46        1.0     0.279270     0.186750     0.816720    Uiso  0.012670 C
   C47        1.0     0.310160     0.168510     0.839430    Uiso  0.012670 C
   C48        1.0     0.303740     0.182220     0.816470    Uiso  0.012670 C
   C49        1.0     0.322640     0.284250     0.772120    Uiso  0.012670 C
   C50        1.0     0.313630     0.275200     0.762760    Uiso  0.012670 C
   C51        1.0     0.241940     0.322240     0.899500    Uiso  0.012670 C
   C52        1.0     0.273040     0.341660     0.857000    Uiso  0.012670 C
   C53        1.0     0.246720     0.339720     0.873690    Uiso  0.012670 C
   C54        1.0     0.217500     0.318890     0.914230    Uiso  0.012670 C
   C55        1.0     0.332570     0.077960     0.921380    Uiso  0.012670 C
   C56        1.0     0.197470     0.332990     0.903390    Uiso  0.012670 C
   C57        1.0     0.226380     0.354380     0.863310    Uiso  0.012670 C
   C58        1.0     0.202130     0.351110     0.877940    Uiso  0.012670 C
   O18        1.0     0.461030     0.425590     0.611240    Uiso  0.012670 O
   O19        1.0     0.368830     0.333270     0.772650    Uiso  0.012670 O
   O20        1.0     0.443520     0.408010     0.663700    Uiso  0.012670 O
   O21        1.0     0.383700     0.306370     0.813200    Uiso  0.012670 O
   O22        1.0     0.319690     0.360820     0.847730    Uiso  0.012670 O
   O23        1.0     0.256260     0.143410     0.953520    Uiso  0.012670 O
   O24        1.0     0.280980     0.092850     0.979460    Uiso  0.012670 O
   O25        1.0     0.283900     0.133960     0.909370    Uiso  0.012670 O
   O26        1.0     0.321490     0.142050     0.886470    Uiso  0.012670 O
   O27        1.0     0.249270     0.207970     0.793360    Uiso  0.012670 O
   O28        1.0     0.288670     0.212180     0.771430    Uiso  0.012670 O
   O29        1.0     0.339260     0.303790     0.791400    Uiso  0.012670 O
   O30        1.0     0.293460     0.258010     0.746040    Uiso  0.012670 O
   O31        1.0     0.290160     0.331120     0.867620    Uiso  0.012670 O
   O32        1.0     0.353320     0.277460     0.832640    Uiso  0.012670 O
   O33        1.0     0.308550     0.084100     0.935080    Uiso  0.012670 O
   O34        1.0     0.339070     0.157370     0.904140    Uiso  0.012670 O
   H18        1.0     0.476220     0.407290     0.577470    Uiso  0.012670 H
   H19        1.0     0.409170     0.340370     0.735150    Uiso  0.012670 H
   H20        1.0     0.435290     0.366490     0.697490    Uiso  0.012670 H
   H21        1.0     0.386950     0.321740     0.865770    Uiso  0.012670 H
   H22        1.0     0.432360     0.299990     0.796340    Uiso  0.012670 H
   H23        1.0     0.210610     0.171760     0.950640    Uiso  0.012670 H
   H24        1.0     0.238420     0.199500     0.979180    Uiso  0.012670 H
   H25        1.0     0.253740     0.155790     0.881990    Uiso  0.012670 H
   H26        1.0     0.242410     0.179980     0.842030    Uiso  0.012670 H
   H27        1.0     0.329170     0.165670     0.838190    Uiso  0.012670 H
   H28        1.0     0.317970     0.189610     0.798490    Uiso  0.012670 H
   H29        1.0     0.341070     0.272420     0.775610    Uiso  0.012670 H
   H30        1.0     0.325490     0.256650     0.759510    Uiso  0.012670 H
   H31        1.0     0.257300     0.310590     0.908020    Uiso  0.012670 H
   H32        1.0     0.214520     0.304830     0.933760    Uiso  0.012670 H
   H33        1.0     0.229280     0.368140     0.843630    Uiso  0.012670 H
   H34        1.0     0.187110     0.362600     0.868980    Uiso  0.012670 H
   Fe5        1.0     0.657700     0.944230     0.114230    Uiso  0.012670 Fe
   Fe6        1.0     0.530340     0.803480     0.306560    Uiso  0.012670 Fe
   C59        1.0     0.547230     0.569440     0.422400    Uiso  0.012670 C
   C60        1.0     0.512470     0.726960     0.361020    Uiso  0.012670 C
   C61        1.0     0.504030     0.705390     0.376030    Uiso  0.012670 C
   C62        1.0     0.427460     0.850540     0.316790    Uiso  0.012670 C
   C63        1.0     0.474890     0.830630     0.312270    Uiso  0.012670 C
   C64        1.0     0.451670     0.831040     0.310890    Uiso  0.012670 C
   C65        1.0     0.453040     0.811700     0.304580    Uiso  0.012670 C
   C66        1.0     0.648430     0.957260     0.185940    Uiso  0.012670 C
   C67        1.0     0.625010     0.962580     0.159360    Uiso  0.012670 C
   C68        1.0     0.624940     0.964940     0.182180    Uiso  0.012670 C
   C69        1.0     0.601430     0.973220     0.201450    Uiso  0.012670 C
   C70        1.0     0.705160     0.863890     0.162970    Uiso  0.012670 C
   C71        1.0     0.668310     0.888040     0.144040    Uiso  0.012670 C
   C72        1.0     0.685300     0.863600     0.158700    Uiso  0.012670 C
   C73        1.0     0.720830     0.840850     0.176810    Uiso  0.012670 C
   C74        1.0     0.732610     0.792300     0.203100    Uiso  0.012670 C
   C75        1.0     0.717260     0.816720     0.186750    Uiso  0.012670 C
   C76        1.0     0.681900     0.839430     0.168510    Uiso  0.012670 C
   C77        1.0     0.697570     0.816470     0.182220    Uiso  0.012670 C
   C78        1.0     0.620990     0.772120     0.284250    Uiso  0.012670 C
   C79        1.0     0.648410     0.762760     0.275200    Uiso  0.012670 C
   C80        1.0     0.536320     0.899500     0.322240    Uiso  0.012670 C
   C81        1.0     0.528300     0.857000     0.341660    Uiso  0.012670 C
   C82        1.0     0.539870     0.873690     0.339720    Uiso  0.012670 C
   C83        1.0     0.549380     0.914230     0.318890    Uiso  0.012670 C
   C84        1.0     0.668080     0.921380     0.077960    Uiso  0.012670 C
   C85        1.0     0.566150     0.903390     0.332990    Uiso  0.012670 C
   C86        1.0     0.555920     0.863310     0.354380    Uiso  0.012670 C
   C87        1.0     0.568810     0.877940     0.351110    Uiso  0.012670 C
   O35        1.0     0.502140     0.611240     0.425590    Uiso  0.012670 O
   O36        1.0     0.525250     0.772650     0.333270    Uiso  0.012670 O
   O37        1.0     0.484770     0.663700     0.408010    Uiso  0.012670 O
   O38        1.0     0.496730     0.813200     0.306370    Uiso  0.012670 O
   O39        1.0     0.471760     0.847730     0.360820    Uiso  0.012670 O
   O40        1.0     0.646810     0.953520     0.143410    Uiso  0.012670 O
   O41        1.0     0.646700     0.979460     0.092850    Uiso  0.012670 O
   O42        1.0     0.672770     0.909370     0.133960    Uiso  0.012670 O
   O43        1.0     0.650000     0.886470     0.142050    Uiso  0.012670 O
   O44        1.0     0.749400     0.793360     0.207970    Uiso  0.012670 O
   O45        1.0     0.727710     0.771430     0.212180    Uiso  0.012670 O
   O46        1.0     0.565560     0.791400     0.303790    Uiso  0.012670 O
   O47        1.0     0.702490     0.746040     0.258010    Uiso  0.012670 O
   O48        1.0     0.511110     0.867620     0.331120    Uiso  0.012670 O
   O49        1.0     0.536570     0.832640     0.277460    Uiso  0.012670 O
   O50        1.0     0.672270     0.935080     0.084100    Uiso  0.012670 O
   O51        1.0     0.599430     0.904140     0.157370    Uiso  0.012670 O
   H35        1.0     0.539020     0.577470     0.407290    Uiso  0.012670 H
   H36        1.0     0.515320     0.735150     0.340370    Uiso  0.012670 H
   H37        1.0     0.500730     0.697490     0.366490    Uiso  0.012670 H
   H38        1.0     0.425540     0.865770     0.321740    Uiso  0.012670 H
   H39        1.0     0.471310     0.796340     0.299990    Uiso  0.012670 H
   H40        1.0     0.666980     0.950640     0.171760    Uiso  0.012670 H
   H41        1.0     0.582900     0.979180     0.199500    Uiso  0.012670 H
   H42        1.0     0.708490     0.881990     0.155790    Uiso  0.012670 H
   H43        1.0     0.735570     0.842030     0.179980    Uiso  0.012670 H
   H44        1.0     0.666980     0.838190     0.165670    Uiso  0.012670 H
   H45        1.0     0.693940     0.798490     0.189610    Uiso  0.012670 H
   H46        1.0     0.610900     0.775610     0.272420    Uiso  0.012670 H
   H47        1.0     0.658350     0.759510     0.256650    Uiso  0.012670 H
   H48        1.0     0.524080     0.908020     0.310590    Uiso  0.012670 H
   H49        1.0     0.546900     0.933760     0.304830    Uiso  0.012670 H
   H50        1.0     0.558950     0.843630     0.368140    Uiso  0.012670 H
   H51        1.0     0.581310     0.868980     0.362600    Uiso  0.012670 H
   Fe7        1.0     0.944230     0.657700     0.283840    Uiso  0.012670 Fe
   Fe8        1.0     0.803480     0.530340     0.359630    Uiso  0.012670 Fe
   C88        1.0     0.569440     0.547230     0.460920    Uiso  0.012670 C
   C89        1.0     0.726960     0.512470     0.399550    Uiso  0.012670 C
   C90        1.0     0.705390     0.504030     0.414550    Uiso  0.012670 C
   C91        1.0     0.850540     0.427460     0.405210    Uiso  0.012670 C
   C92        1.0     0.830630     0.474890     0.382200    Uiso  0.012670 C
   C93        1.0     0.831040     0.451670     0.406410    Uiso  0.012670 C
   C94        1.0     0.811700     0.453040     0.430680    Uiso  0.012670 C
   C95        1.0     0.957260     0.648430     0.208370    Uiso  0.012670 C
   C96        1.0     0.962580     0.625010     0.253050    Uiso  0.012670 C
   C97        1.0     0.964940     0.624940     0.227950    Uiso  0.012670 C
   C98        1.0     0.973220     0.601430     0.223900    Uiso  0.012670 C
   C99        1.0     0.863890     0.705160     0.267990    Uiso  0.012670 C
   C100       1.0     0.888040     0.668310     0.299610    Uiso  0.012670 C
   C101       1.0     0.863600     0.685300     0.292400    Uiso  0.012670 C
   C102       1.0     0.840850     0.720830     0.261520    Uiso  0.012670 C
   C103       1.0     0.792300     0.732610     0.271990    Uiso  0.012670 C
   C104       1.0     0.816720     0.717260     0.279270    Uiso  0.012670 C
   C105       1.0     0.839430     0.681900     0.310160    Uiso  0.012670 C
   C106       1.0     0.816470     0.697570     0.303740    Uiso  0.012670 C
   C107       1.0     0.772120     0.620990     0.322640    Uiso  0.012670 C
   C108       1.0     0.762760     0.648410     0.313630    Uiso  0.012670 C
   C109       1.0     0.899500     0.536320     0.241940    Uiso  0.012670 C
   C110       1.0     0.857000     0.528300     0.273040    Uiso  0.012670 C
   C111       1.0     0.873690     0.539870     0.246720    Uiso  0.012670 C
   C112       1.0     0.914230     0.549380     0.217500    Uiso  0.012670 C
   C113       1.0     0.921380     0.668080     0.332570    Uiso  0.012670 C
   C114       1.0     0.903390     0.566150     0.197470    Uiso  0.012670 C
   C115       1.0     0.863310     0.555920     0.226380    Uiso  0.012670 C
   C116       1.0     0.877940     0.568810     0.202130    Uiso  0.012670 C
   O52        1.0     0.611240     0.502140     0.461030    Uiso  0.012670 O
   O53        1.0     0.772650     0.525250     0.368830    Uiso  0.012670 O
   O54        1.0     0.663700     0.484770     0.443520    Uiso  0.012670 O
   O55        1.0     0.813200     0.496730     0.383700    Uiso  0.012670 O
   O56        1.0     0.847730     0.471760     0.319690    Uiso  0.012670 O
   O57        1.0     0.953520     0.646810     0.256260    Uiso  0.012670 O
   O58        1.0     0.979460     0.646700     0.280980    Uiso  0.012670 O
   O59        1.0     0.909370     0.672770     0.283900    Uiso  0.012670 O
   O60        1.0     0.886470     0.650000     0.321490    Uiso  0.012670 O
   O61        1.0     0.793360     0.749400     0.249270    Uiso  0.012670 O
   O62        1.0     0.771430     0.727710     0.288670    Uiso  0.012670 O
   O63        1.0     0.791400     0.565560     0.339260    Uiso  0.012670 O
   O64        1.0     0.746040     0.702490     0.293460    Uiso  0.012670 O
   O65        1.0     0.867620     0.511110     0.290160    Uiso  0.012670 O
   O66        1.0     0.832640     0.536570     0.353320    Uiso  0.012670 O
   O67        1.0     0.935080     0.672270     0.308550    Uiso  0.012670 O
   O68        1.0     0.904140     0.599430     0.339070    Uiso  0.012670 O
   H52        1.0     0.577470     0.539020     0.476220    Uiso  0.012670 H
   H53        1.0     0.735150     0.515320     0.409170    Uiso  0.012670 H
   H54        1.0     0.697490     0.500730     0.435290    Uiso  0.012670 H
   H55        1.0     0.865770     0.425540     0.386950    Uiso  0.012670 H
   H56        1.0     0.796340     0.471310     0.432360    Uiso  0.012670 H
   H57        1.0     0.950640     0.666980     0.210610    Uiso  0.012670 H
   H58        1.0     0.979180     0.582900     0.238420    Uiso  0.012670 H
   H59        1.0     0.881990     0.708490     0.253740    Uiso  0.012670 H
   H60        1.0     0.842030     0.735570     0.242410    Uiso  0.012670 H
   H61        1.0     0.838190     0.666980     0.329170    Uiso  0.012670 H
   H62        1.0     0.798490     0.693940     0.317970    Uiso  0.012670 H
   H63        1.0     0.775610     0.610900     0.341070    Uiso  0.012670 H
   H64        1.0     0.759510     0.658350     0.325490    Uiso  0.012670 H
   H65        1.0     0.908020     0.524080     0.257300    Uiso  0.012670 H
   H66        1.0     0.933760     0.546900     0.214520    Uiso  0.012670 H
   H67        1.0     0.843630     0.558950     0.229280    Uiso  0.012670 H
   H68        1.0     0.868980     0.581310     0.187110    Uiso  0.012670 H
   Fe9        1.0     0.657700     0.114230     0.283840    Uiso  0.012670 Fe
   Fe10       1.0     0.530340     0.306560     0.359630    Uiso  0.012670 Fe
   C117       1.0     0.547230     0.422400     0.460920    Uiso  0.012670 C
   C118       1.0     0.512470     0.361020     0.399550    Uiso  0.012670 C
   C119       1.0     0.504030     0.376030     0.414550    Uiso  0.012670 C
   C120       1.0     0.427460     0.316790     0.405210    Uiso  0.012670 C
   C121       1.0     0.474890     0.312270     0.382200    Uiso  0.012670 C
   C122       1.0     0.451670     0.310890     0.406410    Uiso  0.012670 C
   C123       1.0     0.453040     0.304580     0.430680    Uiso  0.012670 C
   C124       1.0     0.648430     0.185940     0.208370    Uiso  0.012670 C
   C125       1.0     0.625010     0.159360     0.253050    Uiso  0.012670 C
   C126       1.0     0.624940     0.182180     0.227950    Uiso  0.012670 C
   C127       1.0     0.601430     0.201450     0.223900    Uiso  0.012670 C
   C128       1.0     0.705160     0.162970     0.267990    Uiso  0.012670 C
   C129       1.0     0.668310     0.144040     0.299610    Uiso  0.012670 C
   C130       1.0     0.685300     0.158700     0.292400    Uiso  0.012670 C
   C131       1.0     0.720830     0.176810     0.261520    Uiso  0.012670 C
   C132       1.0     0.732610     0.203100     0.271990    Uiso  0.012670 C
   C133       1.0     0.717260     0.186750     0.279270    Uiso  0.012670 C
   C134       1.0     0.681900     0.168510     0.310160    Uiso  0.012670 C
   C135       1.0     0.697570     0.182220     0.303740    Uiso  0.012670 C
   C136       1.0     0.620990     0.284250     0.322640    Uiso  0.012670 C
   C137       1.0     0.648410     0.275200     0.313630    Uiso  0.012670 C
   C138       1.0     0.536320     0.322240     0.241940    Uiso  0.012670 C
   C139       1.0     0.528300     0.341660     0.273040    Uiso  0.012670 C
   C140       1.0     0.539870     0.339720     0.246720    Uiso  0.012670 C
   C141       1.0     0.549380     0.318890     0.217500    Uiso  0.012670 C
   C142       1.0     0.668080     0.077960     0.332570    Uiso  0.012670 C
   C143       1.0     0.566150     0.332990     0.197470    Uiso  0.012670 C
   C144       1.0     0.555920     0.354380     0.226380    Uiso  0.012670 C
   C145       1.0     0.568810     0.351110     0.202130    Uiso  0.012670 C
   O69        1.0     0.502140     0.425590     0.461030    Uiso  0.012670 O
   O70        1.0     0.525250     0.333270     0.368830    Uiso  0.012670 O
   O71        1.0     0.484770     0.408010     0.443520    Uiso  0.012670 O
   O72        1.0     0.496730     0.306370     0.383700    Uiso  0.012670 O
   O73        1.0     0.471760     0.360820     0.319690    Uiso  0.012670 O
   O74        1.0     0.646810     0.143410     0.256260    Uiso  0.012670 O
   O75        1.0     0.646700     0.092850     0.280980    Uiso  0.012670 O
   O76        1.0     0.672770     0.133960     0.283900    Uiso  0.012670 O
   O77        1.0     0.650000     0.142050     0.321490    Uiso  0.012670 O
   O78        1.0     0.749400     0.207970     0.249270    Uiso  0.012670 O
   O79        1.0     0.727710     0.212180     0.288670    Uiso  0.012670 O
   O80        1.0     0.565560     0.303790     0.339260    Uiso  0.012670 O
   O81        1.0     0.702490     0.258010     0.293460    Uiso  0.012670 O
   O82        1.0     0.511110     0.331120     0.290160    Uiso  0.012670 O
   O83        1.0     0.536570     0.277460     0.353320    Uiso  0.012670 O
   O84        1.0     0.672270     0.084100     0.308550    Uiso  0.012670 O
   O85        1.0     0.599430     0.157370     0.339070    Uiso  0.012670 O
   H69        1.0     0.539020     0.407290     0.476220    Uiso  0.012670 H
   H70        1.0     0.515320     0.340370     0.409170    Uiso  0.012670 H
   H71        1.0     0.500730     0.366490     0.435290    Uiso  0.012670 H
   H72        1.0     0.425540     0.321740     0.386950    Uiso  0.012670 H
   H73        1.0     0.471310     0.299990     0.432360    Uiso  0.012670 H
   H74        1.0     0.666980     0.171760     0.210610    Uiso  0.012670 H
   H75        1.0     0.582900     0.199500     0.238420    Uiso  0.012670 H
   H76        1.0     0.708490     0.155790     0.253740    Uiso  0.012670 H
   H77        1.0     0.735570     0.179980     0.242410    Uiso  0.012670 H
   H78        1.0     0.666980     0.165670     0.329170    Uiso  0.012670 H
   H79        1.0     0.693940     0.189610     0.317970    Uiso  0.012670 H
   H80        1.0     0.610900     0.272420     0.341070    Uiso  0.012670 H
   H81        1.0     0.658350     0.256650     0.325490    Uiso  0.012670 H
   H82        1.0     0.524080     0.310590     0.257300    Uiso  0.012670 H
   H83        1.0     0.546900     0.304830     0.214520    Uiso  0.012670 H
   H84        1.0     0.558950     0.368140     0.229280    Uiso  0.012670 H
   H85        1.0     0.581310     0.362600     0.187110    Uiso  0.012670 H
   Fe11       1.0     0.944230     0.283840     0.114230    Uiso  0.012670 Fe
   Fe12       1.0     0.803480     0.359630     0.306560    Uiso  0.012670 Fe
   C146       1.0     0.569440     0.460920     0.422400    Uiso  0.012670 C
   C147       1.0     0.726960     0.399550     0.361020    Uiso  0.012670 C
   C148       1.0     0.705390     0.414550     0.376030    Uiso  0.012670 C
   C149       1.0     0.850540     0.405210     0.316790    Uiso  0.012670 C
   C150       1.0     0.830630     0.382200     0.312270    Uiso  0.012670 C
   C151       1.0     0.831040     0.406410     0.310890    Uiso  0.012670 C
   C152       1.0     0.811700     0.430680     0.304580    Uiso  0.012670 C
   C153       1.0     0.957260     0.208370     0.185940    Uiso  0.012670 C
   C154       1.0     0.962580     0.253050     0.159360    Uiso  0.012670 C
   C155       1.0     0.964940     0.227950     0.182180    Uiso  0.012670 C
   C156       1.0     0.973220     0.223900     0.201450    Uiso  0.012670 C
   C157       1.0     0.863890     0.267990     0.162970    Uiso  0.012670 C
   C158       1.0     0.888040     0.299610     0.144040    Uiso  0.012670 C
   C159       1.0     0.863600     0.292400     0.158700    Uiso  0.012670 C
   C160       1.0     0.840850     0.261520     0.176810    Uiso  0.012670 C
   C161       1.0     0.792300     0.271990     0.203100    Uiso  0.012670 C
   C162       1.0     0.816720     0.279270     0.186750    Uiso  0.012670 C
   C163       1.0     0.839430     0.310160     0.168510    Uiso  0.012670 C
   C164       1.0     0.816470     0.303740     0.182220    Uiso  0.012670 C
   C165       1.0     0.772120     0.322640     0.284250    Uiso  0.012670 C
   C166       1.0     0.762760     0.313630     0.275200    Uiso  0.012670 C
   C167       1.0     0.899500     0.241940     0.322240    Uiso  0.012670 C
   C168       1.0     0.857000     0.273040     0.341660    Uiso  0.012670 C
   C169       1.0     0.873690     0.246720     0.339720    Uiso  0.012670 C
   C170       1.0     0.914230     0.217500     0.318890    Uiso  0.012670 C
   C171       1.0     0.921380     0.332570     0.077960    Uiso  0.012670 C
   C172       1.0     0.903390     0.197470     0.332990    Uiso  0.012670 C
   C173       1.0     0.863310     0.226380     0.354380    Uiso  0.012670 C
   C174       1.0     0.877940     0.202130     0.351110    Uiso  0.012670 C
   O86        1.0     0.611240     0.461030     0.425590    Uiso  0.012670 O
   O87        1.0     0.772650     0.368830     0.333270    Uiso  0.012670 O
   O88        1.0     0.663700     0.443520     0.408010    Uiso  0.012670 O
   O89        1.0     0.813200     0.383700     0.306370    Uiso  0.012670 O
   O90        1.0     0.847730     0.319690     0.360820    Uiso  0.012670 O
   O91        1.0     0.953520     0.256260     0.143410    Uiso  0.012670 O
   O92        1.0     0.979460     0.280980     0.092850    Uiso  0.012670 O
   O93        1.0     0.909370     0.283900     0.133960    Uiso  0.012670 O
   O94        1.0     0.886470     0.321490     0.142050    Uiso  0.012670 O
   O95        1.0     0.793360     0.249270     0.207970    Uiso  0.012670 O
   O96        1.0     0.771430     0.288670     0.212180    Uiso  0.012670 O
   O97        1.0     0.791400     0.339260     0.303790    Uiso  0.012670 O
   O98        1.0     0.746040     0.293460     0.258010    Uiso  0.012670 O
   O99        1.0     0.867620     0.290160     0.331120    Uiso  0.012670 O
   O100       1.0     0.832640     0.353320     0.277460    Uiso  0.012670 O
   O101       1.0     0.935080     0.308550     0.084100    Uiso  0.012670 O
   O102       1.0     0.904140     0.339070     0.157370    Uiso  0.012670 O
   H86        1.0     0.577470     0.476220     0.407290    Uiso  0.012670 H
   H87        1.0     0.735150     0.409170     0.340370    Uiso  0.012670 H
   H88        1.0     0.697490     0.435290     0.366490    Uiso  0.012670 H
   H89        1.0     0.865770     0.386950     0.321740    Uiso  0.012670 H
   H90        1.0     0.796340     0.432360     0.299990    Uiso  0.012670 H
   H91        1.0     0.950640     0.210610     0.171760    Uiso  0.012670 H
   H92        1.0     0.979180     0.238420     0.199500    Uiso  0.012670 H
   H93        1.0     0.881990     0.253740     0.155790    Uiso  0.012670 H
   H94        1.0     0.842030     0.242410     0.179980    Uiso  0.012670 H
   H95        1.0     0.838190     0.329170     0.165670    Uiso  0.012670 H
   H96        1.0     0.798490     0.317970     0.189610    Uiso  0.012670 H
   H97        1.0     0.775610     0.341070     0.272420    Uiso  0.012670 H
   H98        1.0     0.759510     0.325490     0.256650    Uiso  0.012670 H
   H99        1.0     0.908020     0.257300     0.310590    Uiso  0.012670 H
   H100       1.0     0.933760     0.214520     0.304830    Uiso  0.012670 H
   H101       1.0     0.843630     0.229280     0.368140    Uiso  0.012670 H
   H102       1.0     0.868980     0.187110     0.362600    Uiso  0.012670 H
   Fe13       1.0     0.114230     0.657700     0.944230    Uiso  0.012670 Fe
   Fe14       1.0     0.306560     0.530340     0.803480    Uiso  0.012670 Fe
   C175       1.0     0.422400     0.547230     0.569440    Uiso  0.012670 C
   C176       1.0     0.361020     0.512470     0.726960    Uiso  0.012670 C
   C177       1.0     0.376030     0.504030     0.705390    Uiso  0.012670 C
   C178       1.0     0.316790     0.427460     0.850540    Uiso  0.012670 C
   C179       1.0     0.312270     0.474890     0.830630    Uiso  0.012670 C
   C180       1.0     0.310890     0.451670     0.831040    Uiso  0.012670 C
   C181       1.0     0.304580     0.453040     0.811700    Uiso  0.012670 C
   C182       1.0     0.185940     0.648430     0.957260    Uiso  0.012670 C
   C183       1.0     0.159360     0.625010     0.962580    Uiso  0.012670 C
   C184       1.0     0.182180     0.624940     0.964940    Uiso  0.012670 C
   C185       1.0     0.201450     0.601430     0.973220    Uiso  0.012670 C
   C186       1.0     0.162970     0.705160     0.863890    Uiso  0.012670 C
   C187       1.0     0.144040     0.668310     0.888040    Uiso  0.012670 C
   C188       1.0     0.158700     0.685300     0.863600    Uiso  0.012670 C
   C189       1.0     0.176810     0.720830     0.840850    Uiso  0.012670 C
   C190       1.0     0.203100     0.732610     0.792300    Uiso  0.012670 C
   C191       1.0     0.186750     0.717260     0.816720    Uiso  0.012670 C
   C192       1.0     0.168510     0.681900     0.839430    Uiso  0.012670 C
   C193       1.0     0.182220     0.697570     0.816470    Uiso  0.012670 C
   C194       1.0     0.284250     0.620990     0.772120    Uiso  0.012670 C
   C195       1.0     0.275200     0.648410     0.762760    Uiso  0.012670 C
   C196       1.0     0.322240     0.536320     0.899500    Uiso  0.012670 C
   C197       1.0     0.341660     0.528300     0.857000    Uiso  0.012670 C
   C198       1.0     0.339720     0.539870     0.873690    Uiso  0.012670 C
   C199       1.0     0.318890     0.549380     0.914230    Uiso  0.012670 C
   C200       1.0     0.077960     0.668080     0.921380    Uiso  0.012670 C
   C201       1.0     0.332990     0.566150     0.903390    Uiso  0.012670 C
   C202       1.0     0.354380     0.555920     0.863310    Uiso  0.012670 C
   C203       1.0     0.351110     0.568810     0.877940    Uiso  0.012670 C
   O103       1.0     0.425590     0.502140     0.611240    Uiso  0.012670 O
   O104       1.0     0.333270     0.525250     0.772650    Uiso  0.012670 O
   O105       1.0     0.408010     0.484770     0.663700    Uiso  0.012670 O
   O106       1.0     0.306370     0.496730     0.813200    Uiso  0.012670 O
   O107       1.0     0.360820     0.471760     0.847730    Uiso  0.012670 O
   O108       1.0     0.143410     0.646810     0.953520    Uiso  0.012670 O
   O109       1.0     0.092850     0.646700     0.979460    Uiso  0.012670 O
   O110       1.0     0.133960     0.672770     0.909370    Uiso  0.012670 O
   O111       1.0     0.142050     0.650000     0.886470    Uiso  0.012670 O
   O112       1.0     0.207970     0.749400     0.793360    Uiso  0.012670 O
   O113       1.0     0.212180     0.727710     0.771430    Uiso  0.012670 O
   O114       1.0     0.303790     0.565560     0.791400    Uiso  0.012670 O
   O115       1.0     0.258010     0.702490     0.746040    Uiso  0.012670 O
   O116       1.0     0.331120     0.511110     0.867620    Uiso  0.012670 O
   O117       1.0     0.277460     0.536570     0.832640    Uiso  0.012670 O
   O118       1.0     0.084100     0.672270     0.935080    Uiso  0.012670 O
   O119       1.0     0.157370     0.599430     0.904140    Uiso  0.012670 O
   H103       1.0     0.407290     0.539020     0.577470    Uiso  0.012670 H
   H104       1.0     0.340370     0.515320     0.735150    Uiso  0.012670 H
   H105       1.0     0.366490     0.500730     0.697490    Uiso  0.012670 H
   H106       1.0     0.321740     0.425540     0.865770    Uiso  0.012670 H
   H107       1.0     0.299990     0.471310     0.796340    Uiso  0.012670 H
   H108       1.0     0.171760     0.666980     0.950640    Uiso  0.012670 H
   H109       1.0     0.199500     0.582900     0.979180    Uiso  0.012670 H
   H110       1.0     0.155790     0.708490     0.881990    Uiso  0.012670 H
   H111       1.0     0.179980     0.735570     0.842030    Uiso  0.012670 H
   H112       1.0     0.165670     0.666980     0.838190    Uiso  0.012670 H
   H113       1.0     0.189610     0.693940     0.798490    Uiso  0.012670 H
   H114       1.0     0.272420     0.610900     0.775610    Uiso  0.012670 H
   H115       1.0     0.256650     0.658350     0.759510    Uiso  0.012670 H
   H116       1.0     0.310590     0.524080     0.908020    Uiso  0.012670 H
   H117       1.0     0.304830     0.546900     0.933760    Uiso  0.012670 H
   H118       1.0     0.368140     0.558950     0.843630    Uiso  0.012670 H
   H119       1.0     0.362600     0.581310     0.868980    Uiso  0.012670 H
   Fe15       1.0     0.283840     0.944230     0.657700    Uiso  0.012670 Fe
   Fe16       1.0     0.359630     0.803480     0.530340    Uiso  0.012670 Fe
   C204       1.0     0.460920     0.569440     0.547230    Uiso  0.012670 C
   C205       1.0     0.399550     0.726960     0.512470    Uiso  0.012670 C
   C206       1.0     0.414550     0.705390     0.504030    Uiso  0.012670 C
   C207       1.0     0.405210     0.850540     0.427460    Uiso  0.012670 C
   C208       1.0     0.382200     0.830630     0.474890    Uiso  0.012670 C
   C209       1.0     0.406410     0.831040     0.451670    Uiso  0.012670 C
   C210       1.0     0.430680     0.811700     0.453040    Uiso  0.012670 C
   C211       1.0     0.208370     0.957260     0.648430    Uiso  0.012670 C
   C212       1.0     0.253050     0.962580     0.625010    Uiso  0.012670 C
   C213       1.0     0.227950     0.964940     0.624940    Uiso  0.012670 C
   C214       1.0     0.223900     0.973220     0.601430    Uiso  0.012670 C
   C215       1.0     0.267990     0.863890     0.705160    Uiso  0.012670 C
   C216       1.0     0.299610     0.888040     0.668310    Uiso  0.012670 C
   C217       1.0     0.292400     0.863600     0.685300    Uiso  0.012670 C
   C218       1.0     0.261520     0.840850     0.720830    Uiso  0.012670 C
   C219       1.0     0.271990     0.792300     0.732610    Uiso  0.012670 C
   C220       1.0     0.279270     0.816720     0.717260    Uiso  0.012670 C
   C221       1.0     0.310160     0.839430     0.681900    Uiso  0.012670 C
   C222       1.0     0.303740     0.816470     0.697570    Uiso  0.012670 C
   C223       1.0     0.322640     0.772120     0.620990    Uiso  0.012670 C
   C224       1.0     0.313630     0.762760     0.648410    Uiso  0.012670 C
   C225       1.0     0.241940     0.899500     0.536320    Uiso  0.012670 C
   C226       1.0     0.273040     0.857000     0.528300    Uiso  0.012670 C
   C227       1.0     0.246720     0.873690     0.539870    Uiso  0.012670 C
   C228       1.0     0.217500     0.914230     0.549380    Uiso  0.012670 C
   C229       1.0     0.332570     0.921380     0.668080    Uiso  0.012670 C
   C230       1.0     0.197470     0.903390     0.566150    Uiso  0.012670 C
   C231       1.0     0.226380     0.863310     0.555920    Uiso  0.012670 C
   C232       1.0     0.202130     0.877940     0.568810    Uiso  0.012670 C
   O120       1.0     0.461030     0.611240     0.502140    Uiso  0.012670 O
   O121       1.0     0.368830     0.772650     0.525250    Uiso  0.012670 O
   O122       1.0     0.443520     0.663700     0.484770    Uiso  0.012670 O
   O123       1.0     0.383700     0.813200     0.496730    Uiso  0.012670 O
   O124       1.0     0.319690     0.847730     0.471760    Uiso  0.012670 O
   O125       1.0     0.256260     0.953520     0.646810    Uiso  0.012670 O
   O126       1.0     0.280980     0.979460     0.646700    Uiso  0.012670 O
   O127       1.0     0.283900     0.909370     0.672770    Uiso  0.012670 O
   O128       1.0     0.321490     0.886470     0.650000    Uiso  0.012670 O
   O129       1.0     0.249270     0.793360     0.749400    Uiso  0.012670 O
   O130       1.0     0.288670     0.771430     0.727710    Uiso  0.012670 O
   O131       1.0     0.339260     0.791400     0.565560    Uiso  0.012670 O
   O132       1.0     0.293460     0.746040     0.702490    Uiso  0.012670 O
   O133       1.0     0.290160     0.867620     0.511110    Uiso  0.012670 O
   O134       1.0     0.353320     0.832640     0.536570    Uiso  0.012670 O
   O135       1.0     0.308550     0.935080     0.672270    Uiso  0.012670 O
   O136       1.0     0.339070     0.904140     0.599430    Uiso  0.012670 O
   H120       1.0     0.476220     0.577470     0.539020    Uiso  0.012670 H
   H121       1.0     0.409170     0.735150     0.515320    Uiso  0.012670 H
   H122       1.0     0.435290     0.697490     0.500730    Uiso  0.012670 H
   H123       1.0     0.386950     0.865770     0.425540    Uiso  0.012670 H
   H124       1.0     0.432360     0.796340     0.471310    Uiso  0.012670 H
   H125       1.0     0.210610     0.950640     0.666980    Uiso  0.012670 H
   H126       1.0     0.238420     0.979180     0.582900    Uiso  0.012670 H
   H127       1.0     0.253740     0.881990     0.708490    Uiso  0.012670 H
   H128       1.0     0.242410     0.842030     0.735570    Uiso  0.012670 H
   H129       1.0     0.329170     0.838190     0.666980    Uiso  0.012670 H
   H130       1.0     0.317970     0.798490     0.693940    Uiso  0.012670 H
   H131       1.0     0.341070     0.775610     0.610900    Uiso  0.012670 H
   H132       1.0     0.325490     0.759510     0.658350    Uiso  0.012670 H
   H133       1.0     0.257300     0.908020     0.524080    Uiso  0.012670 H
   H134       1.0     0.214520     0.933760     0.546900    Uiso  0.012670 H
   H135       1.0     0.229280     0.843630     0.558950    Uiso  0.012670 H
   H136       1.0     0.187110     0.868980     0.581310    Uiso  0.012670 H
   Fe17       1.0     0.283840     0.657700     0.114230    Uiso  0.012670 Fe
   Fe18       1.0     0.359630     0.530340     0.306560    Uiso  0.012670 Fe
   C233       1.0     0.460920     0.547230     0.422400    Uiso  0.012670 C
   C234       1.0     0.399550     0.512470     0.361020    Uiso  0.012670 C
   C235       1.0     0.414550     0.504030     0.376030    Uiso  0.012670 C
   C236       1.0     0.405210     0.427460     0.316790    Uiso  0.012670 C
   C237       1.0     0.382200     0.474890     0.312270    Uiso  0.012670 C
   C238       1.0     0.406410     0.451670     0.310890    Uiso  0.012670 C
   C239       1.0     0.430680     0.453040     0.304580    Uiso  0.012670 C
   C240       1.0     0.208370     0.648430     0.185940    Uiso  0.012670 C
   C241       1.0     0.253050     0.625010     0.159360    Uiso  0.012670 C
   C242       1.0     0.227950     0.624940     0.182180    Uiso  0.012670 C
   C243       1.0     0.223900     0.601430     0.201450    Uiso  0.012670 C
   C244       1.0     0.267990     0.705160     0.162970    Uiso  0.012670 C
   C245       1.0     0.299610     0.668310     0.144040    Uiso  0.012670 C
   C246       1.0     0.292400     0.685300     0.158700    Uiso  0.012670 C
   C247       1.0     0.261520     0.720830     0.176810    Uiso  0.012670 C
   C248       1.0     0.271990     0.732610     0.203100    Uiso  0.012670 C
   C249       1.0     0.279270     0.717260     0.186750    Uiso  0.012670 C
   C250       1.0     0.310160     0.681900     0.168510    Uiso  0.012670 C
   C251       1.0     0.303740     0.697570     0.182220    Uiso  0.012670 C
   C252       1.0     0.322640     0.620990     0.284250    Uiso  0.012670 C
   C253       1.0     0.313630     0.648410     0.275200    Uiso  0.012670 C
   C254       1.0     0.241940     0.536320     0.322240    Uiso  0.012670 C
   C255       1.0     0.273040     0.528300     0.341660    Uiso  0.012670 C
   C256       1.0     0.246720     0.539870     0.339720    Uiso  0.012670 C
   C257       1.0     0.217500     0.549380     0.318890    Uiso  0.012670 C
   C258       1.0     0.332570     0.668080     0.077960    Uiso  0.012670 C
   C259       1.0     0.197470     0.566150     0.332990    Uiso  0.012670 C
   C260       1.0     0.226380     0.555920     0.354380    Uiso  0.012670 C
   C261       1.0     0.202130     0.568810     0.351110    Uiso  0.012670 C
   O137       1.0     0.461030     0.502140     0.425590    Uiso  0.012670 O
   O138       1.0     0.368830     0.525250     0.333270    Uiso  0.012670 O
   O139       1.0     0.443520     0.484770     0.408010    Uiso  0.012670 O
   O140       1.0     0.383700     0.496730     0.306370    Uiso  0.012670 O
   O141       1.0     0.319690     0.471760     0.360820    Uiso  0.012670 O
   O142       1.0     0.256260     0.646810     0.143410    Uiso  0.012670 O
   O143       1.0     0.280980     0.646700     0.092850    Uiso  0.012670 O
   O144       1.0     0.283900     0.672770     0.133960    Uiso  0.012670 O
   O145       1.0     0.321490     0.650000     0.142050    Uiso  0.012670 O
   O146       1.0     0.249270     0.749400     0.207970    Uiso  0.012670 O
   O147       1.0     0.288670     0.727710     0.212180    Uiso  0.012670 O
   O148       1.0     0.339260     0.565560     0.303790    Uiso  0.012670 O
   O149       1.0     0.293460     0.702490     0.258010    Uiso  0.012670 O
   O150       1.0     0.290160     0.511110     0.331120    Uiso  0.012670 O
   O151       1.0     0.353320     0.536570     0.277460    Uiso  0.012670 O
   O152       1.0     0.308550     0.672270     0.084100    Uiso  0.012670 O
   O153       1.0     0.339070     0.599430     0.157370    Uiso  0.012670 O
   H137       1.0     0.476220     0.539020     0.407290    Uiso  0.012670 H
   H138       1.0     0.409170     0.515320     0.340370    Uiso  0.012670 H
   H139       1.0     0.435290     0.500730     0.366490    Uiso  0.012670 H
   H140       1.0     0.386950     0.425540     0.321740    Uiso  0.012670 H
   H141       1.0     0.432360     0.471310     0.299990    Uiso  0.012670 H
   H142       1.0     0.210610     0.666980     0.171760    Uiso  0.012670 H
   H143       1.0     0.238420     0.582900     0.199500    Uiso  0.012670 H
   H144       1.0     0.253740     0.708490     0.155790    Uiso  0.012670 H
   H145       1.0     0.242410     0.735570     0.179980    Uiso  0.012670 H
   H146       1.0     0.329170     0.666980     0.165670    Uiso  0.012670 H
   H147       1.0     0.317970     0.693940     0.189610    Uiso  0.012670 H
   H148       1.0     0.341070     0.610900     0.272420    Uiso  0.012670 H
   H149       1.0     0.325490     0.658350     0.256650    Uiso  0.012670 H
   H150       1.0     0.257300     0.524080     0.310590    Uiso  0.012670 H
   H151       1.0     0.214520     0.546900     0.304830    Uiso  0.012670 H
   H152       1.0     0.229280     0.558950     0.368140    Uiso  0.012670 H
   H153       1.0     0.187110     0.581310     0.362600    Uiso  0.012670 H
   Fe19       1.0     0.114230     0.944230     0.283840    Uiso  0.012670 Fe
   Fe20       1.0     0.306560     0.803480     0.359630    Uiso  0.012670 Fe
   C262       1.0     0.422400     0.569440     0.460920    Uiso  0.012670 C
   C263       1.0     0.361020     0.726960     0.399550    Uiso  0.012670 C
   C264       1.0     0.376030     0.705390     0.414550    Uiso  0.012670 C
   C265       1.0     0.316790     0.850540     0.405210    Uiso  0.012670 C
   C266       1.0     0.312270     0.830630     0.382200    Uiso  0.012670 C
   C267       1.0     0.310890     0.831040     0.406410    Uiso  0.012670 C
   C268       1.0     0.304580     0.811700     0.430680    Uiso  0.012670 C
   C269       1.0     0.185940     0.957260     0.208370    Uiso  0.012670 C
   C270       1.0     0.159360     0.962580     0.253050    Uiso  0.012670 C
   C271       1.0     0.182180     0.964940     0.227950    Uiso  0.012670 C
   C272       1.0     0.201450     0.973220     0.223900    Uiso  0.012670 C
   C273       1.0     0.162970     0.863890     0.267990    Uiso  0.012670 C
   C274       1.0     0.144040     0.888040     0.299610    Uiso  0.012670 C
   C275       1.0     0.158700     0.863600     0.292400    Uiso  0.012670 C
   C276       1.0     0.176810     0.840850     0.261520    Uiso  0.012670 C
   C277       1.0     0.203100     0.792300     0.271990    Uiso  0.012670 C
   C278       1.0     0.186750     0.816720     0.279270    Uiso  0.012670 C
   C279       1.0     0.168510     0.839430     0.310160    Uiso  0.012670 C
   C280       1.0     0.182220     0.816470     0.303740    Uiso  0.012670 C
   C281       1.0     0.284250     0.772120     0.322640    Uiso  0.012670 C
   C282       1.0     0.275200     0.762760     0.313630    Uiso  0.012670 C
   C283       1.0     0.322240     0.899500     0.241940    Uiso  0.012670 C
   C284       1.0     0.341660     0.857000     0.273040    Uiso  0.012670 C
   C285       1.0     0.339720     0.873690     0.246720    Uiso  0.012670 C
   C286       1.0     0.318890     0.914230     0.217500    Uiso  0.012670 C
   C287       1.0     0.077960     0.921380     0.332570    Uiso  0.012670 C
   C288       1.0     0.332990     0.903390     0.197470    Uiso  0.012670 C
   C289       1.0     0.354380     0.863310     0.226380    Uiso  0.012670 C
   C290       1.0     0.351110     0.877940     0.202130    Uiso  0.012670 C
   O154       1.0     0.425590     0.611240     0.461030    Uiso  0.012670 O
   O155       1.0     0.333270     0.772650     0.368830    Uiso  0.012670 O
   O156       1.0     0.408010     0.663700     0.443520    Uiso  0.012670 O
   O157       1.0     0.306370     0.813200     0.383700    Uiso  0.012670 O
   O158       1.0     0.360820     0.847730     0.319690    Uiso  0.012670 O
   O159       1.0     0.143410     0.953520     0.256260    Uiso  0.012670 O
   O160       1.0     0.092850     0.979460     0.280980    Uiso  0.012670 O
   O161       1.0     0.133960     0.909370     0.283900    Uiso  0.012670 O
   O162       1.0     0.142050     0.886470     0.321490    Uiso  0.012670 O
   O163       1.0     0.207970     0.793360     0.249270    Uiso  0.012670 O
   O164       1.0     0.212180     0.771430     0.288670    Uiso  0.012670 O
   O165       1.0     0.303790     0.791400     0.339260    Uiso  0.012670 O
   O166       1.0     0.258010     0.746040     0.293460    Uiso  0.012670 O
   O167       1.0     0.331120     0.867620     0.290160    Uiso  0.012670 O
   O168       1.0     0.277460     0.832640     0.353320    Uiso  0.012670 O
   O169       1.0     0.084100     0.935080     0.308550    Uiso  0.012670 O
   O170       1.0     0.157370     0.904140     0.339070    Uiso  0.012670 O
   H154       1.0     0.407290     0.577470     0.476220    Uiso  0.012670 H
   H155       1.0     0.340370     0.735150     0.409170    Uiso  0.012670 H
   H156       1.0     0.366490     0.697490     0.435290    Uiso  0.012670 H
   H157       1.0     0.321740     0.865770     0.386950    Uiso  0.012670 H
   H158       1.0     0.299990     0.796340     0.432360    Uiso  0.012670 H
   H159       1.0     0.171760     0.950640     0.210610    Uiso  0.012670 H
   H160       1.0     0.199500     0.979180     0.238420    Uiso  0.012670 H
   H161       1.0     0.155790     0.881990     0.253740    Uiso  0.012670 H
   H162       1.0     0.179980     0.842030     0.242410    Uiso  0.012670 H
   H163       1.0     0.165670     0.838190     0.329170    Uiso  0.012670 H
   H164       1.0     0.189610     0.798490     0.317970    Uiso  0.012670 H
   H165       1.0     0.272420     0.775610     0.341070    Uiso  0.012670 H
   H166       1.0     0.256650     0.759510     0.325490    Uiso  0.012670 H
   H167       1.0     0.310590     0.908020     0.257300    Uiso  0.012670 H
   H168       1.0     0.304830     0.933760     0.214520    Uiso  0.012670 H
   H169       1.0     0.368140     0.843630     0.229280    Uiso  0.012670 H
   H170       1.0     0.362600     0.868980     0.187110    Uiso  0.012670 H
   Fe21       1.0     0.944230     0.114230     0.657700    Uiso  0.012670 Fe
   Fe22       1.0     0.803480     0.306560     0.530340    Uiso  0.012670 Fe
   C291       1.0     0.569440     0.422400     0.547230    Uiso  0.012670 C
   C292       1.0     0.726960     0.361020     0.512470    Uiso  0.012670 C
   C293       1.0     0.705390     0.376030     0.504030    Uiso  0.012670 C
   C294       1.0     0.850540     0.316790     0.427460    Uiso  0.012670 C
   C295       1.0     0.830630     0.312270     0.474890    Uiso  0.012670 C
   C296       1.0     0.831040     0.310890     0.451670    Uiso  0.012670 C
   C297       1.0     0.811700     0.304580     0.453040    Uiso  0.012670 C
   C298       1.0     0.957260     0.185940     0.648430    Uiso  0.012670 C
   C299       1.0     0.962580     0.159360     0.625010    Uiso  0.012670 C
   C300       1.0     0.964940     0.182180     0.624940    Uiso  0.012670 C
   C301       1.0     0.973220     0.201450     0.601430    Uiso  0.012670 C
   C302       1.0     0.863890     0.162970     0.705160    Uiso  0.012670 C
   C303       1.0     0.888040     0.144040     0.668310    Uiso  0.012670 C
   C304       1.0     0.863600     0.158700     0.685300    Uiso  0.012670 C
   C305       1.0     0.840850     0.176810     0.720830    Uiso  0.012670 C
   C306       1.0     0.792300     0.203100     0.732610    Uiso  0.012670 C
   C307       1.0     0.816720     0.186750     0.717260    Uiso  0.012670 C
   C308       1.0     0.839430     0.168510     0.681900    Uiso  0.012670 C
   C309       1.0     0.816470     0.182220     0.697570    Uiso  0.012670 C
   C310       1.0     0.772120     0.284250     0.620990    Uiso  0.012670 C
   C311       1.0     0.762760     0.275200     0.648410    Uiso  0.012670 C
   C312       1.0     0.899500     0.322240     0.536320    Uiso  0.012670 C
   C313       1.0     0.857000     0.341660     0.528300    Uiso  0.012670 C
   C314       1.0     0.873690     0.339720     0.539870    Uiso  0.012670 C
   C315       1.0     0.914230     0.318890     0.549380    Uiso  0.012670 C
   C316       1.0     0.921380     0.077960     0.668080    Uiso  0.012670 C
   C317       1.0     0.903390     0.332990     0.566150    Uiso  0.012670 C
   C318       1.0     0.863310     0.354380     0.555920    Uiso  0.012670 C
   C319       1.0     0.877940     0.351110     0.568810    Uiso  0.012670 C
   O171       1.0     0.611240     0.425590     0.502140    Uiso  0.012670 O
   O172       1.0     0.772650     0.333270     0.525250    Uiso  0.012670 O
   O173       1.0     0.663700     0.408010     0.484770    Uiso  0.012670 O
   O174       1.0     0.813200     0.306370     0.496730    Uiso  0.012670 O
   O175       1.0     0.847730     0.360820     0.471760    Uiso  0.012670 O
   O176       1.0     0.953520     0.143410     0.646810    Uiso  0.012670 O
   O177       1.0     0.979460     0.092850     0.646700    Uiso  0.012670 O
   O178       1.0     0.909370     0.133960     0.672770    Uiso  0.012670 O
   O179       1.0     0.886470     0.142050     0.650000    Uiso  0.012670 O
   O180       1.0     0.793360     0.207970     0.749400    Uiso  0.012670 O
   O181       1.0     0.771430     0.212180     0.727710    Uiso  0.012670 O
   O182       1.0     0.791400     0.303790     0.565560    Uiso  0.012670 O
   O183       1.0     0.746040     0.258010     0.702490    Uiso  0.012670 O
   O184       1.0     0.867620     0.331120     0.511110    Uiso  0.012670 O
   O185       1.0     0.832640     0.277460     0.536570    Uiso  0.012670 O
   O186       1.0     0.935080     0.084100     0.672270    Uiso  0.012670 O
   O187       1.0     0.904140     0.157370     0.599430    Uiso  0.012670 O
   H171       1.0     0.577470     0.407290     0.539020    Uiso  0.012670 H
   H172       1.0     0.735150     0.340370     0.515320    Uiso  0.012670 H
   H173       1.0     0.697490     0.366490     0.500730    Uiso  0.012670 H
   H174       1.0     0.865770     0.321740     0.425540    Uiso  0.012670 H
   H175       1.0     0.796340     0.299990     0.471310    Uiso  0.012670 H
   H176       1.0     0.950640     0.171760     0.666980    Uiso  0.012670 H
   H177       1.0     0.979180     0.199500     0.582900    Uiso  0.012670 H
   H178       1.0     0.881990     0.155790     0.708490    Uiso  0.012670 H
   H179       1.0     0.842030     0.179980     0.735570    Uiso  0.012670 H
   H180       1.0     0.838190     0.165670     0.666980    Uiso  0.012670 H
   H181       1.0     0.798490     0.189610     0.693940    Uiso  0.012670 H
   H182       1.0     0.775610     0.272420     0.610900    Uiso  0.012670 H
   H183       1.0     0.759510     0.256650     0.658350    Uiso  0.012670 H
   H184       1.0     0.908020     0.310590     0.524080    Uiso  0.012670 H
   H185       1.0     0.933760     0.304830     0.546900    Uiso  0.012670 H
   H186       1.0     0.843630     0.368140     0.558950    Uiso  0.012670 H
   H187       1.0     0.868980     0.362600     0.581310    Uiso  0.012670 H
   Fe23       1.0     0.657700     0.283840     0.944230    Uiso  0.012670 Fe
   Fe24       1.0     0.530340     0.359630     0.803480    Uiso  0.012670 Fe
   C320       1.0     0.547230     0.460920     0.569440    Uiso  0.012670 C
   C321       1.0     0.512470     0.399550     0.726960    Uiso  0.012670 C
   C322       1.0     0.504030     0.414550     0.705390    Uiso  0.012670 C
   C323       1.0     0.427460     0.405210     0.850540    Uiso  0.012670 C
   C324       1.0     0.474890     0.382200     0.830630    Uiso  0.012670 C
   C325       1.0     0.451670     0.406410     0.831040    Uiso  0.012670 C
   C326       1.0     0.453040     0.430680     0.811700    Uiso  0.012670 C
   C327       1.0     0.648430     0.208370     0.957260    Uiso  0.012670 C
   C328       1.0     0.625010     0.253050     0.962580    Uiso  0.012670 C
   C329       1.0     0.624940     0.227950     0.964940    Uiso  0.012670 C
   C330       1.0     0.601430     0.223900     0.973220    Uiso  0.012670 C
   C331       1.0     0.705160     0.267990     0.863890    Uiso  0.012670 C
   C332       1.0     0.668310     0.299610     0.888040    Uiso  0.012670 C
   C333       1.0     0.685300     0.292400     0.863600    Uiso  0.012670 C
   C334       1.0     0.720830     0.261520     0.840850    Uiso  0.012670 C
   C335       1.0     0.732610     0.271990     0.792300    Uiso  0.012670 C
   C336       1.0     0.717260     0.279270     0.816720    Uiso  0.012670 C
   C337       1.0     0.681900     0.310160     0.839430    Uiso  0.012670 C
   C338       1.0     0.697570     0.303740     0.816470    Uiso  0.012670 C
   C339       1.0     0.620990     0.322640     0.772120    Uiso  0.012670 C
   C340       1.0     0.648410     0.313630     0.762760    Uiso  0.012670 C
   C341       1.0     0.536320     0.241940     0.899500    Uiso  0.012670 C
   C342       1.0     0.528300     0.273040     0.857000    Uiso  0.012670 C
   C343       1.0     0.539870     0.246720     0.873690    Uiso  0.012670 C
   C344       1.0     0.549380     0.217500     0.914230    Uiso  0.012670 C
   C345       1.0     0.668080     0.332570     0.921380    Uiso  0.012670 C
   C346       1.0     0.566150     0.197470     0.903390    Uiso  0.012670 C
   C347       1.0     0.555920     0.226380     0.863310    Uiso  0.012670 C
   C348       1.0     0.568810     0.202130     0.877940    Uiso  0.012670 C
   O188       1.0     0.502140     0.461030     0.611240    Uiso  0.012670 O
   O189       1.0     0.525250     0.368830     0.772650    Uiso  0.012670 O
   O190       1.0     0.484770     0.443520     0.663700    Uiso  0.012670 O
   O191       1.0     0.496730     0.383700     0.813200    Uiso  0.012670 O
   O192       1.0     0.471760     0.319690     0.847730    Uiso  0.012670 O
   O193       1.0     0.646810     0.256260     0.953520    Uiso  0.012670 O
   O194       1.0     0.646700     0.280980     0.979460    Uiso  0.012670 O
   O195       1.0     0.672770     0.283900     0.909370    Uiso  0.012670 O
   O196       1.0     0.650000     0.321490     0.886470    Uiso  0.012670 O
   O197       1.0     0.749400     0.249270     0.793360    Uiso  0.012670 O
   O198       1.0     0.727710     0.288670     0.771430    Uiso  0.012670 O
   O199       1.0     0.565560     0.339260     0.791400    Uiso  0.012670 O
   O200       1.0     0.702490     0.293460     0.746040    Uiso  0.012670 O
   O201       1.0     0.511110     0.290160     0.867620    Uiso  0.012670 O
   O202       1.0     0.536570     0.353320     0.832640    Uiso  0.012670 O
   O203       1.0     0.672270     0.308550     0.935080    Uiso  0.012670 O
   O204       1.0     0.599430     0.339070     0.904140    Uiso  0.012670 O
   H188       1.0     0.539020     0.476220     0.577470    Uiso  0.012670 H
   H189       1.0     0.515320     0.409170     0.735150    Uiso  0.012670 H
   H190       1.0     0.500730     0.435290     0.697490    Uiso  0.012670 H
   H191       1.0     0.425540     0.386950     0.865770    Uiso  0.012670 H
   H192       1.0     0.471310     0.432360     0.796340    Uiso  0.012670 H
   H193       1.0     0.666980     0.210610     0.950640    Uiso  0.012670 H
   H194       1.0     0.582900     0.238420     0.979180    Uiso  0.012670 H
   H195       1.0     0.708490     0.253740     0.881990    Uiso  0.012670 H
   H196       1.0     0.735570     0.242410     0.842030    Uiso  0.012670 H
   H197       1.0     0.666980     0.329170     0.838190    Uiso  0.012670 H
   H198       1.0     0.693940     0.317970     0.798490    Uiso  0.012670 H
   H199       1.0     0.610900     0.341070     0.775610    Uiso  0.012670 H
   H200       1.0     0.658350     0.325490     0.759510    Uiso  0.012670 H
   H201       1.0     0.524080     0.257300     0.908020    Uiso  0.012670 H
   H202       1.0     0.546900     0.214520     0.933760    Uiso  0.012670 H
   H203       1.0     0.558950     0.229280     0.843630    Uiso  0.012670 H
   H204       1.0     0.581310     0.187110     0.868980    Uiso  0.012670 H
   Fe25       1.0     0.135770     0.966160     0.305770    Uiso  0.012670 Fe
   Fe26       1.0     0.943440     0.890370     0.446520    Uiso  0.012670 Fe
   C349       1.0     0.827600     0.789080     0.680560    Uiso  0.012670 C
   C350       1.0     0.888980     0.850450     0.523040    Uiso  0.012670 C
   C351       1.0     0.873970     0.835450     0.544610    Uiso  0.012670 C
   C352       1.0     0.933210     0.844790     0.399460    Uiso  0.012670 C
   C353       1.0     0.937730     0.867800     0.419370    Uiso  0.012670 C
   C354       1.0     0.939110     0.843590     0.418960    Uiso  0.012670 C
   C355       1.0     0.945420     0.819320     0.438300    Uiso  0.012670 C
   C356       1.0     0.064060     0.041630     0.292740    Uiso  0.012670 C
   C357       1.0     0.090640     0.996950     0.287420    Uiso  0.012670 C
   C358       1.0     0.067820     0.022050     0.285060    Uiso  0.012670 C
   C359       1.0     0.048550     0.026100     0.276780    Uiso  0.012670 C
   C360       1.0     0.087030     0.982010     0.386110    Uiso  0.012670 C
   C361       1.0     0.105960     0.950390     0.361960    Uiso  0.012670 C
   C362       1.0     0.091300     0.957600     0.386400    Uiso  0.012670 C
   C363       1.0     0.073190     0.988480     0.409150    Uiso  0.012670 C
   C364       1.0     0.046900     0.978010     0.457700    Uiso  0.012670 C
   C365       1.0     0.063250     0.970730     0.433280    Uiso  0.012670 C
   C366       1.0     0.081490     0.939840     0.410570    Uiso  0.012670 C
   C367       1.0     0.067780     0.946260     0.433530    Uiso  0.012670 C
   C368       1.0     0.965750     0.927360     0.477880    Uiso  0.012670 C
   C369       1.0     0.974800     0.936370     0.487240    Uiso  0.012670 C
   C370       1.0     0.927760     0.008060     0.350500    Uiso  0.012670 C
   C371       1.0     0.908340     0.976960     0.393000    Uiso  0.012670 C
   C372       1.0     0.910280     0.003280     0.376310    Uiso  0.012670 C
   C373       1.0     0.931110     0.032500     0.335770    Uiso  0.012670 C
   C374       1.0     0.172040     0.917430     0.328620    Uiso  0.012670 C
   C375       1.0     0.917010     0.052530     0.346610    Uiso  0.012670 C
   C376       1.0     0.895620     0.023620     0.386690    Uiso  0.012670 C
   C377       1.0     0.898890     0.047870     0.372060    Uiso  0.012670 C
   O205       1.0     0.824410     0.788970     0.638760    Uiso  0.012670 O
   O206       1.0     0.916730     0.881170     0.477350    Uiso  0.012670 O
   O207       1.0     0.841990     0.806480     0.586300    Uiso  0.012670 O
   O208       1.0     0.943630     0.866300     0.436800    Uiso  0.012670 O
   O209       1.0     0.889180     0.930310     0.402270    Uiso  0.012670 O
   O210       1.0     0.106590     0.993740     0.296480    Uiso  0.012670 O
   O211       1.0     0.157150     0.969020     0.270540    Uiso  0.012670 O
   O212       1.0     0.116040     0.966100     0.340630    Uiso  0.012670 O
   O213       1.0     0.107950     0.928510     0.363530    Uiso  0.012670 O
   O214       1.0     0.042030     0.000730     0.456640    Uiso  0.012670 O
   O215       1.0     0.037820     0.961330     0.478570    Uiso  0.012670 O
   O216       1.0     0.946210     0.910740     0.458600    Uiso  0.012670 O
   O217       1.0     0.991990     0.956540     0.503960    Uiso  0.012670 O
   O218       1.0     0.918880     0.959840     0.382380    Uiso  0.012670 O
   O219       1.0     0.972540     0.896680     0.417360    Uiso  0.012670 O
   O220       1.0     0.165900     0.941450     0.314920    Uiso  0.012670 O
   O221       1.0     0.092630     0.910930     0.345860    Uiso  0.012670 O
   H205       1.0     0.842710     0.773780     0.672530    Uiso  0.012670 H
   H206       1.0     0.909630     0.840830     0.514850    Uiso  0.012670 H
   H207       1.0     0.883510     0.814710     0.552510    Uiso  0.012670 H
   H208       1.0     0.928260     0.863050     0.384230    Uiso  0.012670 H
   H209       1.0     0.950010     0.817640     0.453660    Uiso  0.012670 H
   H210       1.0     0.078240     0.039390     0.299360    Uiso  0.012670 H
   H211       1.0     0.050500     0.011580     0.270820    Uiso  0.012670 H
   H212       1.0     0.094210     0.996260     0.368010    Uiso  0.012670 H
   H213       1.0     0.070020     0.007590     0.407970    Uiso  0.012670 H
   H214       1.0     0.084330     0.920830     0.411810    Uiso  0.012670 H
   H215       1.0     0.060390     0.932030     0.451510    Uiso  0.012670 H
   H216       1.0     0.977580     0.908930     0.474390    Uiso  0.012670 H
   H217       1.0     0.993350     0.924510     0.490490    Uiso  0.012670 H
   H218       1.0     0.939410     0.992700     0.341980    Uiso  0.012670 H
   H219       1.0     0.945170     0.035480     0.316240    Uiso  0.012670 H
   H220       1.0     0.881860     0.020720     0.406370    Uiso  0.012670 H
   H221       1.0     0.887400     0.062890     0.381020    Uiso  0.012670 H
   Fe27       1.0     0.966160     0.135770     0.592300    Uiso  0.012670 Fe
   Fe28       1.0     0.890370     0.943440     0.719660    Uiso  0.012670 Fe
   C378       1.0     0.789080     0.827600     0.702770    Uiso  0.012670 C
   C379       1.0     0.850450     0.888980     0.737530    Uiso  0.012670 C
   C380       1.0     0.835450     0.873970     0.745970    Uiso  0.012670 C
   C381       1.0     0.844790     0.933210     0.822540    Uiso  0.012670 C
   C382       1.0     0.867800     0.937730     0.775110    Uiso  0.012670 C
   C383       1.0     0.843590     0.939110     0.798330    Uiso  0.012670 C
   C384       1.0     0.819320     0.945420     0.796960    Uiso  0.012670 C
   C385       1.0     0.041630     0.064060     0.601570    Uiso  0.012670 C
   C386       1.0     0.996950     0.090640     0.624990    Uiso  0.012670 C
   C387       1.0     0.022050     0.067820     0.625060    Uiso  0.012670 C
   C388       1.0     0.026100     0.048550     0.648570    Uiso  0.012670 C
   C389       1.0     0.982010     0.087030     0.544840    Uiso  0.012670 C
   C390       1.0     0.950390     0.105960     0.581690    Uiso  0.012670 C
   C391       1.0     0.957600     0.091300     0.564700    Uiso  0.012670 C
   C392       1.0     0.988480     0.073190     0.529170    Uiso  0.012670 C
   C393       1.0     0.978010     0.046900     0.517390    Uiso  0.012670 C
   C394       1.0     0.970730     0.063250     0.532740    Uiso  0.012670 C
   C395       1.0     0.939840     0.081490     0.568100    Uiso  0.012670 C
   C396       1.0     0.946260     0.067780     0.552430    Uiso  0.012670 C
   C397       1.0     0.927360     0.965750     0.629010    Uiso  0.012670 C
   C398       1.0     0.936370     0.974800     0.601590    Uiso  0.012670 C
   C399       1.0     0.008060     0.927760     0.713680    Uiso  0.012670 C
   C400       1.0     0.976960     0.908340     0.721700    Uiso  0.012670 C
   C401       1.0     0.003280     0.910280     0.710130    Uiso  0.012670 C
   C402       1.0     0.032500     0.931110     0.700620    Uiso  0.012670 C
   C403       1.0     0.917430     0.172040     0.581920    Uiso  0.012670 C
   C404       1.0     0.052530     0.917010     0.683850    Uiso  0.012670 C
   C405       1.0     0.023620     0.895620     0.694080    Uiso  0.012670 C
   C406       1.0     0.047870     0.898890     0.681190    Uiso  0.012670 C
   O222       1.0     0.788970     0.824410     0.747860    Uiso  0.012670 O
   O223       1.0     0.881170     0.916730     0.724750    Uiso  0.012670 O
   O224       1.0     0.806480     0.841990     0.765230    Uiso  0.012670 O
   O225       1.0     0.866300     0.943630     0.753270    Uiso  0.012670 O
   O226       1.0     0.930310     0.889180     0.778240    Uiso  0.012670 O
   O227       1.0     0.993740     0.106590     0.603190    Uiso  0.012670 O
   O228       1.0     0.969020     0.157150     0.603300    Uiso  0.012670 O
   O229       1.0     0.966100     0.116040     0.577230    Uiso  0.012670 O
   O230       1.0     0.928510     0.107950     0.600000    Uiso  0.012670 O
   O231       1.0     0.000730     0.042030     0.500600    Uiso  0.012670 O
   O232       1.0     0.961330     0.037820     0.522290    Uiso  0.012670 O
   O233       1.0     0.910740     0.946210     0.684440    Uiso  0.012670 O
   O234       1.0     0.956540     0.991990     0.547510    Uiso  0.012670 O
   O235       1.0     0.959840     0.918880     0.738890    Uiso  0.012670 O
   O236       1.0     0.896680     0.972540     0.713430    Uiso  0.012670 O
   O237       1.0     0.941450     0.165900     0.577730    Uiso  0.012670 O
   O238       1.0     0.910930     0.092630     0.650570    Uiso  0.012670 O
   H222       1.0     0.773780     0.842710     0.710980    Uiso  0.012670 H
   H223       1.0     0.840830     0.909630     0.734680    Uiso  0.012670 H
   H224       1.0     0.814710     0.883510     0.749270    Uiso  0.012670 H
   H225       1.0     0.863050     0.928260     0.824460    Uiso  0.012670 H
   H226       1.0     0.817640     0.950010     0.778690    Uiso  0.012670 H
   H227       1.0     0.039390     0.078240     0.583020    Uiso  0.012670 H
   H228       1.0     0.011580     0.050500     0.667100    Uiso  0.012670 H
   H229       1.0     0.996260     0.094210     0.541510    Uiso  0.012670 H
   H230       1.0     0.007590     0.070020     0.514430    Uiso  0.012670 H
   H231       1.0     0.920830     0.084330     0.583020    Uiso  0.012670 H
   H232       1.0     0.932030     0.060390     0.556060    Uiso  0.012670 H
   H233       1.0     0.908930     0.977580     0.639100    Uiso  0.012670 H
   H234       1.0     0.924510     0.993350     0.591650    Uiso  0.012670 H
   H235       1.0     0.992700     0.939410     0.725920    Uiso  0.012670 H
   H236       1.0     0.035480     0.945170     0.703100    Uiso  0.012670 H
   H237       1.0     0.020720     0.881860     0.691050    Uiso  0.012670 H
   H238       1.0     0.062890     0.887400     0.668690    Uiso  0.012670 H
   Fe29       1.0     0.592300     0.305770     0.966160    Uiso  0.012670 Fe
   Fe30       1.0     0.719660     0.446520     0.890370    Uiso  0.012670 Fe
   C407       1.0     0.702770     0.680560     0.789080    Uiso  0.012670 C
   C408       1.0     0.737530     0.523040     0.850450    Uiso  0.012670 C
   C409       1.0     0.745970     0.544610     0.835450    Uiso  0.012670 C
   C410       1.0     0.822540     0.399460     0.844790    Uiso  0.012670 C
   C411       1.0     0.775110     0.419370     0.867800    Uiso  0.012670 C
   C412       1.0     0.798330     0.418960     0.843590    Uiso  0.012670 C
   C413       1.0     0.796960     0.438300     0.819320    Uiso  0.012670 C
   C414       1.0     0.601570     0.292740     0.041630    Uiso  0.012670 C
   C415       1.0     0.624990     0.287420     0.996950    Uiso  0.012670 C
   C416       1.0     0.625060     0.285060     0.022050    Uiso  0.012670 C
   C417       1.0     0.648570     0.276780     0.026100    Uiso  0.012670 C
   C418       1.0     0.544840     0.386110     0.982010    Uiso  0.012670 C
   C419       1.0     0.581690     0.361960     0.950390    Uiso  0.012670 C
   C420       1.0     0.564700     0.386400     0.957600    Uiso  0.012670 C
   C421       1.0     0.529170     0.409150     0.988480    Uiso  0.012670 C
   C422       1.0     0.517390     0.457700     0.978010    Uiso  0.012670 C
   C423       1.0     0.532740     0.433280     0.970730    Uiso  0.012670 C
   C424       1.0     0.568100     0.410570     0.939840    Uiso  0.012670 C
   C425       1.0     0.552430     0.433530     0.946260    Uiso  0.012670 C
   C426       1.0     0.629010     0.477880     0.927360    Uiso  0.012670 C
   C427       1.0     0.601590     0.487240     0.936370    Uiso  0.012670 C
   C428       1.0     0.713680     0.350500     0.008060    Uiso  0.012670 C
   C429       1.0     0.721700     0.393000     0.976960    Uiso  0.012670 C
   C430       1.0     0.710130     0.376310     0.003280    Uiso  0.012670 C
   C431       1.0     0.700620     0.335770     0.032500    Uiso  0.012670 C
   C432       1.0     0.581920     0.328620     0.917430    Uiso  0.012670 C
   C433       1.0     0.683850     0.346610     0.052530    Uiso  0.012670 C
   C434       1.0     0.694080     0.386690     0.023620    Uiso  0.012670 C
   C435       1.0     0.681190     0.372060     0.047870    Uiso  0.012670 C
   O239       1.0     0.747860     0.638760     0.788970    Uiso  0.012670 O
   O240       1.0     0.724750     0.477350     0.881170    Uiso  0.012670 O
   O241       1.0     0.765230     0.586300     0.806480    Uiso  0.012670 O
   O242       1.0     0.753270     0.436800     0.866300    Uiso  0.012670 O
   O243       1.0     0.778240     0.402270     0.930310    Uiso  0.012670 O
   O244       1.0     0.603190     0.296480     0.993740    Uiso  0.012670 O
   O245       1.0     0.603300     0.270540     0.969020    Uiso  0.012670 O
   O246       1.0     0.577230     0.340630     0.966100    Uiso  0.012670 O
   O247       1.0     0.600000     0.363530     0.928510    Uiso  0.012670 O
   O248       1.0     0.500600     0.456640     0.000730    Uiso  0.012670 O
   O249       1.0     0.522290     0.478570     0.961330    Uiso  0.012670 O
   O250       1.0     0.684440     0.458600     0.910740    Uiso  0.012670 O
   O251       1.0     0.547510     0.503960     0.956540    Uiso  0.012670 O
   O252       1.0     0.738890     0.382380     0.959840    Uiso  0.012670 O
   O253       1.0     0.713430     0.417360     0.896680    Uiso  0.012670 O
   O254       1.0     0.577730     0.314920     0.941450    Uiso  0.012670 O
   O255       1.0     0.650570     0.345860     0.910930    Uiso  0.012670 O
   H239       1.0     0.710980     0.672530     0.773780    Uiso  0.012670 H
   H240       1.0     0.734680     0.514850     0.840830    Uiso  0.012670 H
   H241       1.0     0.749270     0.552510     0.814710    Uiso  0.012670 H
   H242       1.0     0.824460     0.384230     0.863050    Uiso  0.012670 H
   H243       1.0     0.778690     0.453660     0.817640    Uiso  0.012670 H
   H244       1.0     0.583020     0.299360     0.039390    Uiso  0.012670 H
   H245       1.0     0.667100     0.270820     0.011580    Uiso  0.012670 H
   H246       1.0     0.541510     0.368010     0.996260    Uiso  0.012670 H
   H247       1.0     0.514430     0.407970     0.007590    Uiso  0.012670 H
   H248       1.0     0.583020     0.411810     0.920830    Uiso  0.012670 H
   H249       1.0     0.556060     0.451510     0.932030    Uiso  0.012670 H
   H250       1.0     0.639100     0.474390     0.908930    Uiso  0.012670 H
   H251       1.0     0.591650     0.490490     0.924510    Uiso  0.012670 H
   H252       1.0     0.725920     0.341980     0.992700    Uiso  0.012670 H
   H253       1.0     0.703100     0.316240     0.035480    Uiso  0.012670 H
   H254       1.0     0.691050     0.406370     0.020720    Uiso  0.012670 H
   H255       1.0     0.668690     0.381020     0.062890    Uiso  0.012670 H
   Fe31       1.0     0.305770     0.592300     0.135770    Uiso  0.012670 Fe
   Fe32       1.0     0.446520     0.719660     0.943440    Uiso  0.012670 Fe
   C436       1.0     0.680560     0.702770     0.827600    Uiso  0.012670 C
   C437       1.0     0.523040     0.737530     0.888980    Uiso  0.012670 C
   C438       1.0     0.544610     0.745970     0.873970    Uiso  0.012670 C
   C439       1.0     0.399460     0.822540     0.933210    Uiso  0.012670 C
   C440       1.0     0.419370     0.775110     0.937730    Uiso  0.012670 C
   C441       1.0     0.418960     0.798330     0.939110    Uiso  0.012670 C
   C442       1.0     0.438300     0.796960     0.945420    Uiso  0.012670 C
   C443       1.0     0.292740     0.601570     0.064060    Uiso  0.012670 C
   C444       1.0     0.287420     0.624990     0.090640    Uiso  0.012670 C
   C445       1.0     0.285060     0.625060     0.067820    Uiso  0.012670 C
   C446       1.0     0.276780     0.648570     0.048550    Uiso  0.012670 C
   C447       1.0     0.386110     0.544840     0.087030    Uiso  0.012670 C
   C448       1.0     0.361960     0.581690     0.105960    Uiso  0.012670 C
   C449       1.0     0.386400     0.564700     0.091300    Uiso  0.012670 C
   C450       1.0     0.409150     0.529170     0.073190    Uiso  0.012670 C
   C451       1.0     0.457700     0.517390     0.046900    Uiso  0.012670 C
   C452       1.0     0.433280     0.532740     0.063250    Uiso  0.012670 C
   C453       1.0     0.410570     0.568100     0.081490    Uiso  0.012670 C
   C454       1.0     0.433530     0.552430     0.067780    Uiso  0.012670 C
   C455       1.0     0.477880     0.629010     0.965750    Uiso  0.012670 C
   C456       1.0     0.487240     0.601590     0.974800    Uiso  0.012670 C
   C457       1.0     0.350500     0.713680     0.927760    Uiso  0.012670 C
   C458       1.0     0.393000     0.721700     0.908340    Uiso  0.012670 C
   C459       1.0     0.376310     0.710130     0.910280    Uiso  0.012670 C
   C460       1.0     0.335770     0.700620     0.931110    Uiso  0.012670 C
   C461       1.0     0.328620     0.581920     0.172040    Uiso  0.012670 C
   C462       1.0     0.346610     0.683850     0.917010    Uiso  0.012670 C
   C463       1.0     0.386690     0.694080     0.895620    Uiso  0.012670 C
   C464       1.0     0.372060     0.681190     0.898890    Uiso  0.012670 C
   O256       1.0     0.638760     0.747860     0.824410    Uiso  0.012670 O
   O257       1.0     0.477350     0.724750     0.916730    Uiso  0.012670 O
   O258       1.0     0.586300     0.765230     0.841990    Uiso  0.012670 O
   O259       1.0     0.436800     0.753270     0.943630    Uiso  0.012670 O
   O260       1.0     0.402270     0.778240     0.889180    Uiso  0.012670 O
   O261       1.0     0.296480     0.603190     0.106590    Uiso  0.012670 O
   O262       1.0     0.270540     0.603300     0.157150    Uiso  0.012670 O
   O263       1.0     0.340630     0.577230     0.116040    Uiso  0.012670 O
   O264       1.0     0.363530     0.600000     0.107950    Uiso  0.012670 O
   O265       1.0     0.456640     0.500600     0.042030    Uiso  0.012670 O
   O266       1.0     0.478570     0.522290     0.037820    Uiso  0.012670 O
   O267       1.0     0.458600     0.684440     0.946210    Uiso  0.012670 O
   O268       1.0     0.503960     0.547510     0.991990    Uiso  0.012670 O
   O269       1.0     0.382380     0.738890     0.918880    Uiso  0.012670 O
   O270       1.0     0.417360     0.713430     0.972540    Uiso  0.012670 O
   O271       1.0     0.314920     0.577730     0.165900    Uiso  0.012670 O
   O272       1.0     0.345860     0.650570     0.092630    Uiso  0.012670 O
   H256       1.0     0.672530     0.710980     0.842710    Uiso  0.012670 H
   H257       1.0     0.514850     0.734680     0.909630    Uiso  0.012670 H
   H258       1.0     0.552510     0.749270     0.883510    Uiso  0.012670 H
   H259       1.0     0.384230     0.824460     0.928260    Uiso  0.012670 H
   H260       1.0     0.453660     0.778690     0.950010    Uiso  0.012670 H
   H261       1.0     0.299360     0.583020     0.078240    Uiso  0.012670 H
   H262       1.0     0.270820     0.667100     0.050500    Uiso  0.012670 H
   H263       1.0     0.368010     0.541510     0.094210    Uiso  0.012670 H
   H264       1.0     0.407970     0.514430     0.070020    Uiso  0.012670 H
   H265       1.0     0.411810     0.583020     0.084330    Uiso  0.012670 H
   H266       1.0     0.451510     0.556060     0.060390    Uiso  0.012670 H
   H267       1.0     0.474390     0.639100     0.977580    Uiso  0.012670 H
   H268       1.0     0.490490     0.591650     0.993350    Uiso  0.012670 H
   H269       1.0     0.341980     0.725920     0.939410    Uiso  0.012670 H
   H270       1.0     0.316240     0.703100     0.945170    Uiso  0.012670 H
   H271       1.0     0.406370     0.691050     0.881860    Uiso  0.012670 H
   H272       1.0     0.381020     0.668690     0.887400    Uiso  0.012670 H
   Fe33       1.0     0.592300     0.135770     0.305770    Uiso  0.012670 Fe
   Fe34       1.0     0.719660     0.943440     0.446520    Uiso  0.012670 Fe
   C465       1.0     0.702770     0.827600     0.680560    Uiso  0.012670 C
   C466       1.0     0.737530     0.888980     0.523040    Uiso  0.012670 C
   C467       1.0     0.745970     0.873970     0.544610    Uiso  0.012670 C
   C468       1.0     0.822540     0.933210     0.399460    Uiso  0.012670 C
   C469       1.0     0.775110     0.937730     0.419370    Uiso  0.012670 C
   C470       1.0     0.798330     0.939110     0.418960    Uiso  0.012670 C
   C471       1.0     0.796960     0.945420     0.438300    Uiso  0.012670 C
   C472       1.0     0.601570     0.064060     0.292740    Uiso  0.012670 C
   C473       1.0     0.624990     0.090640     0.287420    Uiso  0.012670 C
   C474       1.0     0.625060     0.067820     0.285060    Uiso  0.012670 C
   C475       1.0     0.648570     0.048550     0.276780    Uiso  0.012670 C
   C476       1.0     0.544840     0.087030     0.386110    Uiso  0.012670 C
   C477       1.0     0.581690     0.105960     0.361960    Uiso  0.012670 C
   C478       1.0     0.564700     0.091300     0.386400    Uiso  0.012670 C
   C479       1.0     0.529170     0.073190     0.409150    Uiso  0.012670 C
   C480       1.0     0.517390     0.046900     0.457700    Uiso  0.012670 C
   C481       1.0     0.532740     0.063250     0.433280    Uiso  0.012670 C
   C482       1.0     0.568100     0.081490     0.410570    Uiso  0.012670 C
   C483       1.0     0.552430     0.067780     0.433530    Uiso  0.012670 C
   C484       1.0     0.629010     0.965750     0.477880    Uiso  0.012670 C
   C485       1.0     0.601590     0.974800     0.487240    Uiso  0.012670 C
   C486       1.0     0.713680     0.927760     0.350500    Uiso  0.012670 C
   C487       1.0     0.721700     0.908340     0.393000    Uiso  0.012670 C
   C488       1.0     0.710130     0.910280     0.376310    Uiso  0.012670 C
   C489       1.0     0.700620     0.931110     0.335770    Uiso  0.012670 C
   C490       1.0     0.581920     0.172040     0.328620    Uiso  0.012670 C
   C491       1.0     0.683850     0.917010     0.346610    Uiso  0.012670 C
   C492       1.0     0.694080     0.895620     0.386690    Uiso  0.012670 C
   C493       1.0     0.681190     0.898890     0.372060    Uiso  0.012670 C
   O273       1.0     0.747860     0.824410     0.638760    Uiso  0.012670 O
   O274       1.0     0.724750     0.916730     0.477350    Uiso  0.012670 O
   O275       1.0     0.765230     0.841990     0.586300    Uiso  0.012670 O
   O276       1.0     0.753270     0.943630     0.436800    Uiso  0.012670 O
   O277       1.0     0.778240     0.889180     0.402270    Uiso  0.012670 O
   O278       1.0     0.603190     0.106590     0.296480    Uiso  0.012670 O
   O279       1.0     0.603300     0.157150     0.270540    Uiso  0.012670 O
   O280       1.0     0.577230     0.116040     0.340630    Uiso  0.012670 O
   O281       1.0     0.600000     0.107950     0.363530    Uiso  0.012670 O
   O282       1.0     0.500600     0.042030     0.456640    Uiso  0.012670 O
   O283       1.0     0.522290     0.037820     0.478570    Uiso  0.012670 O
   O284       1.0     0.684440     0.946210     0.458600    Uiso  0.012670 O
   O285       1.0     0.547510     0.991990     0.503960    Uiso  0.012670 O
   O286       1.0     0.738890     0.918880     0.382380    Uiso  0.012670 O
   O287       1.0     0.713430     0.972540     0.417360    Uiso  0.012670 O
   O288       1.0     0.577730     0.165900     0.314920    Uiso  0.012670 O
   O289       1.0     0.650570     0.092630     0.345860    Uiso  0.012670 O
   H273       1.0     0.710980     0.842710     0.672530    Uiso  0.012670 H
   H274       1.0     0.734680     0.909630     0.514850    Uiso  0.012670 H
   H275       1.0     0.749270     0.883510     0.552510    Uiso  0.012670 H
   H276       1.0     0.824460     0.928260     0.384230    Uiso  0.012670 H
   H277       1.0     0.778690     0.950010     0.453660    Uiso  0.012670 H
   H278       1.0     0.583020     0.078240     0.299360    Uiso  0.012670 H
   H279       1.0     0.667100     0.050500     0.270820    Uiso  0.012670 H
   H280       1.0     0.541510     0.094210     0.368010    Uiso  0.012670 H
   H281       1.0     0.514430     0.070020     0.407970    Uiso  0.012670 H
   H282       1.0     0.583020     0.084330     0.411810    Uiso  0.012670 H
   H283       1.0     0.556060     0.060390     0.451510    Uiso  0.012670 H
   H284       1.0     0.639100     0.977580     0.474390    Uiso  0.012670 H
   H285       1.0     0.591650     0.993350     0.490490    Uiso  0.012670 H
   H286       1.0     0.725920     0.939410     0.341980    Uiso  0.012670 H
   H287       1.0     0.703100     0.945170     0.316240    Uiso  0.012670 H
   H288       1.0     0.691050     0.881860     0.406370    Uiso  0.012670 H
   H289       1.0     0.668690     0.887400     0.381020    Uiso  0.012670 H
   Fe35       1.0     0.305770     0.966160     0.592300    Uiso  0.012670 Fe
   Fe36       1.0     0.446520     0.890370     0.719660    Uiso  0.012670 Fe
   C494       1.0     0.680560     0.789080     0.702770    Uiso  0.012670 C
   C495       1.0     0.523040     0.850450     0.737530    Uiso  0.012670 C
   C496       1.0     0.544610     0.835450     0.745970    Uiso  0.012670 C
   C497       1.0     0.399460     0.844790     0.822540    Uiso  0.012670 C
   C498       1.0     0.419370     0.867800     0.775110    Uiso  0.012670 C
   C499       1.0     0.418960     0.843590     0.798330    Uiso  0.012670 C
   C500       1.0     0.438300     0.819320     0.796960    Uiso  0.012670 C
   C501       1.0     0.292740     0.041630     0.601570    Uiso  0.012670 C
   C502       1.0     0.287420     0.996950     0.624990    Uiso  0.012670 C
   C503       1.0     0.285060     0.022050     0.625060    Uiso  0.012670 C
   C504       1.0     0.276780     0.026100     0.648570    Uiso  0.012670 C
   C505       1.0     0.386110     0.982010     0.544840    Uiso  0.012670 C
   C506       1.0     0.361960     0.950390     0.581690    Uiso  0.012670 C
   C507       1.0     0.386400     0.957600     0.564700    Uiso  0.012670 C
   C508       1.0     0.409150     0.988480     0.529170    Uiso  0.012670 C
   C509       1.0     0.457700     0.978010     0.517390    Uiso  0.012670 C
   C510       1.0     0.433280     0.970730     0.532740    Uiso  0.012670 C
   C511       1.0     0.410570     0.939840     0.568100    Uiso  0.012670 C
   C512       1.0     0.433530     0.946260     0.552430    Uiso  0.012670 C
   C513       1.0     0.477880     0.927360     0.629010    Uiso  0.012670 C
   C514       1.0     0.487240     0.936370     0.601590    Uiso  0.012670 C
   C515       1.0     0.350500     0.008060     0.713680    Uiso  0.012670 C
   C516       1.0     0.393000     0.976960     0.721700    Uiso  0.012670 C
   C517       1.0     0.376310     0.003280     0.710130    Uiso  0.012670 C
   C518       1.0     0.335770     0.032500     0.700620    Uiso  0.012670 C
   C519       1.0     0.328620     0.917430     0.581920    Uiso  0.012670 C
   C520       1.0     0.346610     0.052530     0.683850    Uiso  0.012670 C
   C521       1.0     0.386690     0.023620     0.694080    Uiso  0.012670 C
   C522       1.0     0.372060     0.047870     0.681190    Uiso  0.012670 C
   O290       1.0     0.638760     0.788970     0.747860    Uiso  0.012670 O
   O291       1.0     0.477350     0.881170     0.724750    Uiso  0.012670 O
   O292       1.0     0.586300     0.806480     0.765230    Uiso  0.012670 O
   O293       1.0     0.436800     0.866300     0.753270    Uiso  0.012670 O
   O294       1.0     0.402270     0.930310     0.778240    Uiso  0.012670 O
   O295       1.0     0.296480     0.993740     0.603190    Uiso  0.012670 O
   O296       1.0     0.270540     0.969020     0.603300    Uiso  0.012670 O
   O297       1.0     0.340630     0.966100     0.577230    Uiso  0.012670 O
   O298       1.0     0.363530     0.928510     0.600000    Uiso  0.012670 O
   O299       1.0     0.456640     0.000730     0.500600    Uiso  0.012670 O
   O300       1.0     0.478570     0.961330     0.522290    Uiso  0.012670 O
   O301       1.0     0.458600     0.910740     0.684440    Uiso  0.012670 O
   O302       1.0     0.503960     0.956540     0.547510    Uiso  0.012670 O
   O303       1.0     0.382380     0.959840     0.738890    Uiso  0.012670 O
   O304       1.0     0.417360     0.896680     0.713430    Uiso  0.012670 O
   O305       1.0     0.314920     0.941450     0.577730    Uiso  0.012670 O
   O306       1.0     0.345860     0.910930     0.650570    Uiso  0.012670 O
   H290       1.0     0.672530     0.773780     0.710980    Uiso  0.012670 H
   H291       1.0     0.514850     0.840830     0.734680    Uiso  0.012670 H
   H292       1.0     0.552510     0.814710     0.749270    Uiso  0.012670 H
   H293       1.0     0.384230     0.863050     0.824460    Uiso  0.012670 H
   H294       1.0     0.453660     0.817640     0.778690    Uiso  0.012670 H
   H295       1.0     0.299360     0.039390     0.583020    Uiso  0.012670 H
   H296       1.0     0.270820     0.011580     0.667100    Uiso  0.012670 H
   H297       1.0     0.368010     0.996260     0.541510    Uiso  0.012670 H
   H298       1.0     0.407970     0.007590     0.514430    Uiso  0.012670 H
   H299       1.0     0.411810     0.920830     0.583020    Uiso  0.012670 H
   H300       1.0     0.451510     0.932030     0.556060    Uiso  0.012670 H
   H301       1.0     0.474390     0.908930     0.639100    Uiso  0.012670 H
   H302       1.0     0.490490     0.924510     0.591650    Uiso  0.012670 H
   H303       1.0     0.341980     0.992700     0.725920    Uiso  0.012670 H
   H304       1.0     0.316240     0.035480     0.703100    Uiso  0.012670 H
   H305       1.0     0.406370     0.020720     0.691050    Uiso  0.012670 H
   H306       1.0     0.381020     0.062890     0.668690    Uiso  0.012670 H
   Fe37       1.0     0.135770     0.592300     0.966160    Uiso  0.012670 Fe
   Fe38       1.0     0.943440     0.719660     0.890370    Uiso  0.012670 Fe
   C523       1.0     0.827600     0.702770     0.789080    Uiso  0.012670 C
   C524       1.0     0.888980     0.737530     0.850450    Uiso  0.012670 C
   C525       1.0     0.873970     0.745970     0.835450    Uiso  0.012670 C
   C526       1.0     0.933210     0.822540     0.844790    Uiso  0.012670 C
   C527       1.0     0.937730     0.775110     0.867800    Uiso  0.012670 C
   C528       1.0     0.939110     0.798330     0.843590    Uiso  0.012670 C
   C529       1.0     0.945420     0.796960     0.819320    Uiso  0.012670 C
   C530       1.0     0.064060     0.601570     0.041630    Uiso  0.012670 C
   C531       1.0     0.090640     0.624990     0.996950    Uiso  0.012670 C
   C532       1.0     0.067820     0.625060     0.022050    Uiso  0.012670 C
   C533       1.0     0.048550     0.648570     0.026100    Uiso  0.012670 C
   C534       1.0     0.087030     0.544840     0.982010    Uiso  0.012670 C
   C535       1.0     0.105960     0.581690     0.950390    Uiso  0.012670 C
   C536       1.0     0.091300     0.564700     0.957600    Uiso  0.012670 C
   C537       1.0     0.073190     0.529170     0.988480    Uiso  0.012670 C
   C538       1.0     0.046900     0.517390     0.978010    Uiso  0.012670 C
   C539       1.0     0.063250     0.532740     0.970730    Uiso  0.012670 C
   C540       1.0     0.081490     0.568100     0.939840    Uiso  0.012670 C
   C541       1.0     0.067780     0.552430     0.946260    Uiso  0.012670 C
   C542       1.0     0.965750     0.629010     0.927360    Uiso  0.012670 C
   C543       1.0     0.974800     0.601590     0.936370    Uiso  0.012670 C
   C544       1.0     0.927760     0.713680     0.008060    Uiso  0.012670 C
   C545       1.0     0.908340     0.721700     0.976960    Uiso  0.012670 C
   C546       1.0     0.910280     0.710130     0.003280    Uiso  0.012670 C
   C547       1.0     0.931110     0.700620     0.032500    Uiso  0.012670 C
   C548       1.0     0.172040     0.581920     0.917430    Uiso  0.012670 C
   C549       1.0     0.917010     0.683850     0.052530    Uiso  0.012670 C
   C550       1.0     0.895620     0.694080     0.023620    Uiso  0.012670 C
   C551       1.0     0.898890     0.681190     0.047870    Uiso  0.012670 C
   O307       1.0     0.824410     0.747860     0.788970    Uiso  0.012670 O
   O308       1.0     0.916730     0.724750     0.881170    Uiso  0.012670 O
   O309       1.0     0.841990     0.765230     0.806480    Uiso  0.012670 O
   O310       1.0     0.943630     0.753270     0.866300    Uiso  0.012670 O
   O311       1.0     0.889180     0.778240     0.930310    Uiso  0.012670 O
   O312       1.0     0.106590     0.603190     0.993740    Uiso  0.012670 O
   O313       1.0     0.157150     0.603300     0.969020    Uiso  0.012670 O
   O314       1.0     0.116040     0.577230     0.966100    Uiso  0.012670 O
   O315       1.0     0.107950     0.600000     0.928510    Uiso  0.012670 O
   O316       1.0     0.042030     0.500600     0.000730    Uiso  0.012670 O
   O317       1.0     0.037820     0.522290     0.961330    Uiso  0.012670 O
   O318       1.0     0.946210     0.684440     0.910740    Uiso  0.012670 O
   O319       1.0     0.991990     0.547510     0.956540    Uiso  0.012670 O
   O320       1.0     0.918880     0.738890     0.959840    Uiso  0.012670 O
   O321       1.0     0.972540     0.713430     0.896680    Uiso  0.012670 O
   O322       1.0     0.165900     0.577730     0.941450    Uiso  0.012670 O
   O323       1.0     0.092630     0.650570     0.910930    Uiso  0.012670 O
   H307       1.0     0.842710     0.710980     0.773780    Uiso  0.012670 H
   H308       1.0     0.909630     0.734680     0.840830    Uiso  0.012670 H
   H309       1.0     0.883510     0.749270     0.814710    Uiso  0.012670 H
   H310       1.0     0.928260     0.824460     0.863050    Uiso  0.012670 H
   H311       1.0     0.950010     0.778690     0.817640    Uiso  0.012670 H
   H312       1.0     0.078240     0.583020     0.039390    Uiso  0.012670 H
   H313       1.0     0.050500     0.667100     0.011580    Uiso  0.012670 H
   H314       1.0     0.094210     0.541510     0.996260    Uiso  0.012670 H
   H315       1.0     0.070020     0.514430     0.007590    Uiso  0.012670 H
   H316       1.0     0.084330     0.583020     0.920830    Uiso  0.012670 H
   H317       1.0     0.060390     0.556060     0.932030    Uiso  0.012670 H
   H318       1.0     0.977580     0.639100     0.908930    Uiso  0.012670 H
   H319       1.0     0.993350     0.591650     0.924510    Uiso  0.012670 H
   H320       1.0     0.939410     0.725920     0.992700    Uiso  0.012670 H
   H321       1.0     0.945170     0.703100     0.035480    Uiso  0.012670 H
   H322       1.0     0.881860     0.691050     0.020720    Uiso  0.012670 H
   H323       1.0     0.887400     0.668690     0.062890    Uiso  0.012670 H
   Fe39       1.0     0.966160     0.305770     0.135770    Uiso  0.012670 Fe
   Fe40       1.0     0.890370     0.446520     0.943440    Uiso  0.012670 Fe
   C552       1.0     0.789080     0.680560     0.827600    Uiso  0.012670 C
   C553       1.0     0.850450     0.523040     0.888980    Uiso  0.012670 C
   C554       1.0     0.835450     0.544610     0.873970    Uiso  0.012670 C
   C555       1.0     0.844790     0.399460     0.933210    Uiso  0.012670 C
   C556       1.0     0.867800     0.419370     0.937730    Uiso  0.012670 C
   C557       1.0     0.843590     0.418960     0.939110    Uiso  0.012670 C
   C558       1.0     0.819320     0.438300     0.945420    Uiso  0.012670 C
   C559       1.0     0.041630     0.292740     0.064060    Uiso  0.012670 C
   C560       1.0     0.996950     0.287420     0.090640    Uiso  0.012670 C
   C561       1.0     0.022050     0.285060     0.067820    Uiso  0.012670 C
   C562       1.0     0.026100     0.276780     0.048550    Uiso  0.012670 C
   C563       1.0     0.982010     0.386110     0.087030    Uiso  0.012670 C
   C564       1.0     0.950390     0.361960     0.105960    Uiso  0.012670 C
   C565       1.0     0.957600     0.386400     0.091300    Uiso  0.012670 C
   C566       1.0     0.988480     0.409150     0.073190    Uiso  0.012670 C
   C567       1.0     0.978010     0.457700     0.046900    Uiso  0.012670 C
   C568       1.0     0.970730     0.433280     0.063250    Uiso  0.012670 C
   C569       1.0     0.939840     0.410570     0.081490    Uiso  0.012670 C
   C570       1.0     0.946260     0.433530     0.067780    Uiso  0.012670 C
   C571       1.0     0.927360     0.477880     0.965750    Uiso  0.012670 C
   C572       1.0     0.936370     0.487240     0.974800    Uiso  0.012670 C
   C573       1.0     0.008060     0.350500     0.927760    Uiso  0.012670 C
   C574       1.0     0.976960     0.393000     0.908340    Uiso  0.012670 C
   C575       1.0     0.003280     0.376310     0.910280    Uiso  0.012670 C
   C576       1.0     0.032500     0.335770     0.931110    Uiso  0.012670 C
   C577       1.0     0.917430     0.328620     0.172040    Uiso  0.012670 C
   C578       1.0     0.052530     0.346610     0.917010    Uiso  0.012670 C
   C579       1.0     0.023620     0.386690     0.895620    Uiso  0.012670 C
   C580       1.0     0.047870     0.372060     0.898890    Uiso  0.012670 C
   O324       1.0     0.788970     0.638760     0.824410    Uiso  0.012670 O
   O325       1.0     0.881170     0.477350     0.916730    Uiso  0.012670 O
   O326       1.0     0.806480     0.586300     0.841990    Uiso  0.012670 O
   O327       1.0     0.866300     0.436800     0.943630    Uiso  0.012670 O
   O328       1.0     0.930310     0.402270     0.889180    Uiso  0.012670 O
   O329       1.0     0.993740     0.296480     0.106590    Uiso  0.012670 O
   O330       1.0     0.969020     0.270540     0.157150    Uiso  0.012670 O
   O331       1.0     0.966100     0.340630     0.116040    Uiso  0.012670 O
   O332       1.0     0.928510     0.363530     0.107950    Uiso  0.012670 O
   O333       1.0     0.000730     0.456640     0.042030    Uiso  0.012670 O
   O334       1.0     0.961330     0.478570     0.037820    Uiso  0.012670 O
   O335       1.0     0.910740     0.458600     0.946210    Uiso  0.012670 O
   O336       1.0     0.956540     0.503960     0.991990    Uiso  0.012670 O
   O337       1.0     0.959840     0.382380     0.918880    Uiso  0.012670 O
   O338       1.0     0.896680     0.417360     0.972540    Uiso  0.012670 O
   O339       1.0     0.941450     0.314920     0.165900    Uiso  0.012670 O
   O340       1.0     0.910930     0.345860     0.092630    Uiso  0.012670 O
   H324       1.0     0.773780     0.672530     0.842710    Uiso  0.012670 H
   H325       1.0     0.840830     0.514850     0.909630    Uiso  0.012670 H
   H326       1.0     0.814710     0.552510     0.883510    Uiso  0.012670 H
   H327       1.0     0.863050     0.384230     0.928260    Uiso  0.012670 H
   H328       1.0     0.817640     0.453660     0.950010    Uiso  0.012670 H
   H329       1.0     0.039390     0.299360     0.078240    Uiso  0.012670 H
   H330       1.0     0.011580     0.270820     0.050500    Uiso  0.012670 H
   H331       1.0     0.996260     0.368010     0.094210    Uiso  0.012670 H
   H332       1.0     0.007590     0.407970     0.070020    Uiso  0.012670 H
   H333       1.0     0.920830     0.411810     0.084330    Uiso  0.012670 H
   H334       1.0     0.932030     0.451510     0.060390    Uiso  0.012670 H
   H335       1.0     0.908930     0.474390     0.977580    Uiso  0.012670 H
   H336       1.0     0.924510     0.490490     0.993350    Uiso  0.012670 H
   H337       1.0     0.992700     0.341980     0.939410    Uiso  0.012670 H
   H338       1.0     0.035480     0.316240     0.945170    Uiso  0.012670 H
   H339       1.0     0.020720     0.406370     0.881860    Uiso  0.012670 H
   H340       1.0     0.062890     0.381020     0.887400    Uiso  0.012670 H
   Fe41       1.0     0.966160     0.592300     0.305770    Uiso  0.012670 Fe
   Fe42       1.0     0.890370     0.719660     0.446520    Uiso  0.012670 Fe
   C581       1.0     0.789080     0.702770     0.680560    Uiso  0.012670 C
   C582       1.0     0.850450     0.737530     0.523040    Uiso  0.012670 C
   C583       1.0     0.835450     0.745970     0.544610    Uiso  0.012670 C
   C584       1.0     0.844790     0.822540     0.399460    Uiso  0.012670 C
   C585       1.0     0.867800     0.775110     0.419370    Uiso  0.012670 C
   C586       1.0     0.843590     0.798330     0.418960    Uiso  0.012670 C
   C587       1.0     0.819320     0.796960     0.438300    Uiso  0.012670 C
   C588       1.0     0.041630     0.601570     0.292740    Uiso  0.012670 C
   C589       1.0     0.996950     0.624990     0.287420    Uiso  0.012670 C
   C590       1.0     0.022050     0.625060     0.285060    Uiso  0.012670 C
   C591       1.0     0.026100     0.648570     0.276780    Uiso  0.012670 C
   C592       1.0     0.982010     0.544840     0.386110    Uiso  0.012670 C
   C593       1.0     0.950390     0.581690     0.361960    Uiso  0.012670 C
   C594       1.0     0.957600     0.564700     0.386400    Uiso  0.012670 C
   C595       1.0     0.988480     0.529170     0.409150    Uiso  0.012670 C
   C596       1.0     0.978010     0.517390     0.457700    Uiso  0.012670 C
   C597       1.0     0.970730     0.532740     0.433280    Uiso  0.012670 C
   C598       1.0     0.939840     0.568100     0.410570    Uiso  0.012670 C
   C599       1.0     0.946260     0.552430     0.433530    Uiso  0.012670 C
   C600       1.0     0.927360     0.629010     0.477880    Uiso  0.012670 C
   C601       1.0     0.936370     0.601590     0.487240    Uiso  0.012670 C
   C602       1.0     0.008060     0.713680     0.350500    Uiso  0.012670 C
   C603       1.0     0.976960     0.721700     0.393000    Uiso  0.012670 C
   C604       1.0     0.003280     0.710130     0.376310    Uiso  0.012670 C
   C605       1.0     0.032500     0.700620     0.335770    Uiso  0.012670 C
   C606       1.0     0.917430     0.581920     0.328620    Uiso  0.012670 C
   C607       1.0     0.052530     0.683850     0.346610    Uiso  0.012670 C
   C608       1.0     0.023620     0.694080     0.386690    Uiso  0.012670 C
   C609       1.0     0.047870     0.681190     0.372060    Uiso  0.012670 C
   O341       1.0     0.788970     0.747860     0.638760    Uiso  0.012670 O
   O342       1.0     0.881170     0.724750     0.477350    Uiso  0.012670 O
   O343       1.0     0.806480     0.765230     0.586300    Uiso  0.012670 O
   O344       1.0     0.866300     0.753270     0.436800    Uiso  0.012670 O
   O345       1.0     0.930310     0.778240     0.402270    Uiso  0.012670 O
   O346       1.0     0.993740     0.603190     0.296480    Uiso  0.012670 O
   O347       1.0     0.969020     0.603300     0.270540    Uiso  0.012670 O
   O348       1.0     0.966100     0.577230     0.340630    Uiso  0.012670 O
   O349       1.0     0.928510     0.600000     0.363530    Uiso  0.012670 O
   O350       1.0     0.000730     0.500600     0.456640    Uiso  0.012670 O
   O351       1.0     0.961330     0.522290     0.478570    Uiso  0.012670 O
   O352       1.0     0.910740     0.684440     0.458600    Uiso  0.012670 O
   O353       1.0     0.956540     0.547510     0.503960    Uiso  0.012670 O
   O354       1.0     0.959840     0.738890     0.382380    Uiso  0.012670 O
   O355       1.0     0.896680     0.713430     0.417360    Uiso  0.012670 O
   O356       1.0     0.941450     0.577730     0.314920    Uiso  0.012670 O
   O357       1.0     0.910930     0.650570     0.345860    Uiso  0.012670 O
   H341       1.0     0.773780     0.710980     0.672530    Uiso  0.012670 H
   H342       1.0     0.840830     0.734680     0.514850    Uiso  0.012670 H
   H343       1.0     0.814710     0.749270     0.552510    Uiso  0.012670 H
   H344       1.0     0.863050     0.824460     0.384230    Uiso  0.012670 H
   H345       1.0     0.817640     0.778690     0.453660    Uiso  0.012670 H
   H346       1.0     0.039390     0.583020     0.299360    Uiso  0.012670 H
   H347       1.0     0.011580     0.667100     0.270820    Uiso  0.012670 H
   H348       1.0     0.996260     0.541510     0.368010    Uiso  0.012670 H
   H349       1.0     0.007590     0.514430     0.407970    Uiso  0.012670 H
   H350       1.0     0.920830     0.583020     0.411810    Uiso  0.012670 H
   H351       1.0     0.932030     0.556060     0.451510    Uiso  0.012670 H
   H352       1.0     0.908930     0.639100     0.474390    Uiso  0.012670 H
   H353       1.0     0.924510     0.591650     0.490490    Uiso  0.012670 H
   H354       1.0     0.992700     0.725920     0.341980    Uiso  0.012670 H
   H355       1.0     0.035480     0.703100     0.316240    Uiso  0.012670 H
   H356       1.0     0.020720     0.691050     0.406370    Uiso  0.012670 H
   H357       1.0     0.062890     0.668690     0.381020    Uiso  0.012670 H
   Fe43       1.0     0.135770     0.305770     0.592300    Uiso  0.012670 Fe
   Fe44       1.0     0.943440     0.446520     0.719660    Uiso  0.012670 Fe
   C610       1.0     0.827600     0.680560     0.702770    Uiso  0.012670 C
   C611       1.0     0.888980     0.523040     0.737530    Uiso  0.012670 C
   C612       1.0     0.873970     0.544610     0.745970    Uiso  0.012670 C
   C613       1.0     0.933210     0.399460     0.822540    Uiso  0.012670 C
   C614       1.0     0.937730     0.419370     0.775110    Uiso  0.012670 C
   C615       1.0     0.939110     0.418960     0.798330    Uiso  0.012670 C
   C616       1.0     0.945420     0.438300     0.796960    Uiso  0.012670 C
   C617       1.0     0.064060     0.292740     0.601570    Uiso  0.012670 C
   C618       1.0     0.090640     0.287420     0.624990    Uiso  0.012670 C
   C619       1.0     0.067820     0.285060     0.625060    Uiso  0.012670 C
   C620       1.0     0.048550     0.276780     0.648570    Uiso  0.012670 C
   C621       1.0     0.087030     0.386110     0.544840    Uiso  0.012670 C
   C622       1.0     0.105960     0.361960     0.581690    Uiso  0.012670 C
   C623       1.0     0.091300     0.386400     0.564700    Uiso  0.012670 C
   C624       1.0     0.073190     0.409150     0.529170    Uiso  0.012670 C
   C625       1.0     0.046900     0.457700     0.517390    Uiso  0.012670 C
   C626       1.0     0.063250     0.433280     0.532740    Uiso  0.012670 C
   C627       1.0     0.081490     0.410570     0.568100    Uiso  0.012670 C
   C628       1.0     0.067780     0.433530     0.552430    Uiso  0.012670 C
   C629       1.0     0.965750     0.477880     0.629010    Uiso  0.012670 C
   C630       1.0     0.974800     0.487240     0.601590    Uiso  0.012670 C
   C631       1.0     0.927760     0.350500     0.713680    Uiso  0.012670 C
   C632       1.0     0.908340     0.393000     0.721700    Uiso  0.012670 C
   C633       1.0     0.910280     0.376310     0.710130    Uiso  0.012670 C
   C634       1.0     0.931110     0.335770     0.700620    Uiso  0.012670 C
   C635       1.0     0.172040     0.328620     0.581920    Uiso  0.012670 C
   C636       1.0     0.917010     0.346610     0.683850    Uiso  0.012670 C
   C637       1.0     0.895620     0.386690     0.694080    Uiso  0.012670 C
   C638       1.0     0.898890     0.372060     0.681190    Uiso  0.012670 C
   O358       1.0     0.824410     0.638760     0.747860    Uiso  0.012670 O
   O359       1.0     0.916730     0.477350     0.724750    Uiso  0.012670 O
   O360       1.0     0.841990     0.586300     0.765230    Uiso  0.012670 O
   O361       1.0     0.943630     0.436800     0.753270    Uiso  0.012670 O
   O362       1.0     0.889180     0.402270     0.778240    Uiso  0.012670 O
   O363       1.0     0.106590     0.296480     0.603190    Uiso  0.012670 O
   O364       1.0     0.157150     0.270540     0.603300    Uiso  0.012670 O
   O365       1.0     0.116040     0.340630     0.577230    Uiso  0.012670 O
   O366       1.0     0.107950     0.363530     0.600000    Uiso  0.012670 O
   O367       1.0     0.042030     0.456640     0.500600    Uiso  0.012670 O
   O368       1.0     0.037820     0.478570     0.522290    Uiso  0.012670 O
   O369       1.0     0.946210     0.458600     0.684440    Uiso  0.012670 O
   O370       1.0     0.991990     0.503960     0.547510    Uiso  0.012670 O
   O371       1.0     0.918880     0.382380     0.738890    Uiso  0.012670 O
   O372       1.0     0.972540     0.417360     0.713430    Uiso  0.012670 O
   O373       1.0     0.165900     0.314920     0.577730    Uiso  0.012670 O
   O374       1.0     0.092630     0.345860     0.650570    Uiso  0.012670 O
   H358       1.0     0.842710     0.672530     0.710980    Uiso  0.012670 H
   H359       1.0     0.909630     0.514850     0.734680    Uiso  0.012670 H
   H360       1.0     0.883510     0.552510     0.749270    Uiso  0.012670 H
   H361       1.0     0.928260     0.384230     0.824460    Uiso  0.012670 H
   H362       1.0     0.950010     0.453660     0.778690    Uiso  0.012670 H
   H363       1.0     0.078240     0.299360     0.583020    Uiso  0.012670 H
   H364       1.0     0.050500     0.270820     0.667100    Uiso  0.012670 H
   H365       1.0     0.094210     0.368010     0.541510    Uiso  0.012670 H
   H366       1.0     0.070020     0.407970     0.514430    Uiso  0.012670 H
   H367       1.0     0.084330     0.411810     0.583020    Uiso  0.012670 H
   H368       1.0     0.060390     0.451510     0.556060    Uiso  0.012670 H
   H369       1.0     0.977580     0.474390     0.639100    Uiso  0.012670 H
   H370       1.0     0.993350     0.490490     0.591650    Uiso  0.012670 H
   H371       1.0     0.939410     0.341980     0.725920    Uiso  0.012670 H
   H372       1.0     0.945170     0.316240     0.703100    Uiso  0.012670 H
   H373       1.0     0.881860     0.406370     0.691050    Uiso  0.012670 H
   H374       1.0     0.887400     0.381020     0.668690    Uiso  0.012670 H
   Fe45       1.0     0.305770     0.135770     0.966160    Uiso  0.012670 Fe
   Fe46       1.0     0.446520     0.943440     0.890370    Uiso  0.012670 Fe
   C639       1.0     0.680560     0.827600     0.789080    Uiso  0.012670 C
   C640       1.0     0.523040     0.888980     0.850450    Uiso  0.012670 C
   C641       1.0     0.544610     0.873970     0.835450    Uiso  0.012670 C
   C642       1.0     0.399460     0.933210     0.844790    Uiso  0.012670 C
   C643       1.0     0.419370     0.937730     0.867800    Uiso  0.012670 C
   C644       1.0     0.418960     0.939110     0.843590    Uiso  0.012670 C
   C645       1.0     0.438300     0.945420     0.819320    Uiso  0.012670 C
   C646       1.0     0.292740     0.064060     0.041630    Uiso  0.012670 C
   C647       1.0     0.287420     0.090640     0.996950    Uiso  0.012670 C
   C648       1.0     0.285060     0.067820     0.022050    Uiso  0.012670 C
   C649       1.0     0.276780     0.048550     0.026100    Uiso  0.012670 C
   C650       1.0     0.386110     0.087030     0.982010    Uiso  0.012670 C
   C651       1.0     0.361960     0.105960     0.950390    Uiso  0.012670 C
   C652       1.0     0.386400     0.091300     0.957600    Uiso  0.012670 C
   C653       1.0     0.409150     0.073190     0.988480    Uiso  0.012670 C
   C654       1.0     0.457700     0.046900     0.978010    Uiso  0.012670 C
   C655       1.0     0.433280     0.063250     0.970730    Uiso  0.012670 C
   C656       1.0     0.410570     0.081490     0.939840    Uiso  0.012670 C
   C657       1.0     0.433530     0.067780     0.946260    Uiso  0.012670 C
   C658       1.0     0.477880     0.965750     0.927360    Uiso  0.012670 C
   C659       1.0     0.487240     0.974800     0.936370    Uiso  0.012670 C
   C660       1.0     0.350500     0.927760     0.008060    Uiso  0.012670 C
   C661       1.0     0.393000     0.908340     0.976960    Uiso  0.012670 C
   C662       1.0     0.376310     0.910280     0.003280    Uiso  0.012670 C
   C663       1.0     0.335770     0.931110     0.032500    Uiso  0.012670 C
   C664       1.0     0.328620     0.172040     0.917430    Uiso  0.012670 C
   C665       1.0     0.346610     0.917010     0.052530    Uiso  0.012670 C
   C666       1.0     0.386690     0.895620     0.023620    Uiso  0.012670 C
   C667       1.0     0.372060     0.898890     0.047870    Uiso  0.012670 C
   O375       1.0     0.638760     0.824410     0.788970    Uiso  0.012670 O
   O376       1.0     0.477350     0.916730     0.881170    Uiso  0.012670 O
   O377       1.0     0.586300     0.841990     0.806480    Uiso  0.012670 O
   O378       1.0     0.436800     0.943630     0.866300    Uiso  0.012670 O
   O379       1.0     0.402270     0.889180     0.930310    Uiso  0.012670 O
   O380       1.0     0.296480     0.106590     0.993740    Uiso  0.012670 O
   O381       1.0     0.270540     0.157150     0.969020    Uiso  0.012670 O
   O382       1.0     0.340630     0.116040     0.966100    Uiso  0.012670 O
   O383       1.0     0.363530     0.107950     0.928510    Uiso  0.012670 O
   O384       1.0     0.456640     0.042030     0.000730    Uiso  0.012670 O
   O385       1.0     0.478570     0.037820     0.961330    Uiso  0.012670 O
   O386       1.0     0.458600     0.946210     0.910740    Uiso  0.012670 O
   O387       1.0     0.503960     0.991990     0.956540    Uiso  0.012670 O
   O388       1.0     0.382380     0.918880     0.959840    Uiso  0.012670 O
   O389       1.0     0.417360     0.972540     0.896680    Uiso  0.012670 O
   O390       1.0     0.314920     0.165900     0.941450    Uiso  0.012670 O
   O391       1.0     0.345860     0.092630     0.910930    Uiso  0.012670 O
   H375       1.0     0.672530     0.842710     0.773780    Uiso  0.012670 H
   H376       1.0     0.514850     0.909630     0.840830    Uiso  0.012670 H
   H377       1.0     0.552510     0.883510     0.814710    Uiso  0.012670 H
   H378       1.0     0.384230     0.928260     0.863050    Uiso  0.012670 H
   H379       1.0     0.453660     0.950010     0.817640    Uiso  0.012670 H
   H380       1.0     0.299360     0.078240     0.039390    Uiso  0.012670 H
   H381       1.0     0.270820     0.050500     0.011580    Uiso  0.012670 H
   H382       1.0     0.368010     0.094210     0.996260    Uiso  0.012670 H
   H383       1.0     0.407970     0.070020     0.007590    Uiso  0.012670 H
   H384       1.0     0.411810     0.084330     0.920830    Uiso  0.012670 H
   H385       1.0     0.451510     0.060390     0.932030    Uiso  0.012670 H
   H386       1.0     0.474390     0.977580     0.908930    Uiso  0.012670 H
   H387       1.0     0.490490     0.993350     0.924510    Uiso  0.012670 H
   H388       1.0     0.341980     0.939410     0.992700    Uiso  0.012670 H
   H389       1.0     0.316240     0.945170     0.035480    Uiso  0.012670 H
   H390       1.0     0.406370     0.881860     0.020720    Uiso  0.012670 H
   H391       1.0     0.381020     0.887400     0.062890    Uiso  0.012670 H
   Fe47       1.0     0.592300     0.966160     0.135770    Uiso  0.012670 Fe
   Fe48       1.0     0.719660     0.890370     0.943440    Uiso  0.012670 Fe
   C668       1.0     0.702770     0.789080     0.827600    Uiso  0.012670 C
   C669       1.0     0.737530     0.850450     0.888980    Uiso  0.012670 C
   C670       1.0     0.745970     0.835450     0.873970    Uiso  0.012670 C
   C671       1.0     0.822540     0.844790     0.933210    Uiso  0.012670 C
   C672       1.0     0.775110     0.867800     0.937730    Uiso  0.012670 C
   C673       1.0     0.798330     0.843590     0.939110    Uiso  0.012670 C
   C674       1.0     0.796960     0.819320     0.945420    Uiso  0.012670 C
   C675       1.0     0.601570     0.041630     0.064060    Uiso  0.012670 C
   C676       1.0     0.624990     0.996950     0.090640    Uiso  0.012670 C
   C677       1.0     0.625060     0.022050     0.067820    Uiso  0.012670 C
   C678       1.0     0.648570     0.026100     0.048550    Uiso  0.012670 C
   C679       1.0     0.544840     0.982010     0.087030    Uiso  0.012670 C
   C680       1.0     0.581690     0.950390     0.105960    Uiso  0.012670 C
   C681       1.0     0.564700     0.957600     0.091300    Uiso  0.012670 C
   C682       1.0     0.529170     0.988480     0.073190    Uiso  0.012670 C
   C683       1.0     0.517390     0.978010     0.046900    Uiso  0.012670 C
   C684       1.0     0.532740     0.970730     0.063250    Uiso  0.012670 C
   C685       1.0     0.568100     0.939840     0.081490    Uiso  0.012670 C
   C686       1.0     0.552430     0.946260     0.067780    Uiso  0.012670 C
   C687       1.0     0.629010     0.927360     0.965750    Uiso  0.012670 C
   C688       1.0     0.601590     0.936370     0.974800    Uiso  0.012670 C
   C689       1.0     0.713680     0.008060     0.927760    Uiso  0.012670 C
   C690       1.0     0.721700     0.976960     0.908340    Uiso  0.012670 C
   C691       1.0     0.710130     0.003280     0.910280    Uiso  0.012670 C
   C692       1.0     0.700620     0.032500     0.931110    Uiso  0.012670 C
   C693       1.0     0.581920     0.917430     0.172040    Uiso  0.012670 C
   C694       1.0     0.683850     0.052530     0.917010    Uiso  0.012670 C
   C695       1.0     0.694080     0.023620     0.895620    Uiso  0.012670 C
   C696       1.0     0.681190     0.047870     0.898890    Uiso  0.012670 C
   O392       1.0     0.747860     0.788970     0.824410    Uiso  0.012670 O
   O393       1.0     0.724750     0.881170     0.916730    Uiso  0.012670 O
   O394       1.0     0.765230     0.806480     0.841990    Uiso  0.012670 O
   O395       1.0     0.753270     0.866300     0.943630    Uiso  0.012670 O
   O396       1.0     0.778240     0.930310     0.889180    Uiso  0.012670 O
   O397       1.0     0.603190     0.993740     0.106590    Uiso  0.012670 O
   O398       1.0     0.603300     0.969020     0.157150    Uiso  0.012670 O
   O399       1.0     0.577230     0.966100     0.116040    Uiso  0.012670 O
   O400       1.0     0.600000     0.928510     0.107950    Uiso  0.012670 O
   O401       1.0     0.500600     0.000730     0.042030    Uiso  0.012670 O
   O402       1.0     0.522290     0.961330     0.037820    Uiso  0.012670 O
   O403       1.0     0.684440     0.910740     0.946210    Uiso  0.012670 O
   O404       1.0     0.547510     0.956540     0.991990    Uiso  0.012670 O
   O405       1.0     0.738890     0.959840     0.918880    Uiso  0.012670 O
   O406       1.0     0.713430     0.896680     0.972540    Uiso  0.012670 O
   O407       1.0     0.577730     0.941450     0.165900    Uiso  0.012670 O
   O408       1.0     0.650570     0.910930     0.092630    Uiso  0.012670 O
   H392       1.0     0.710980     0.773780     0.842710    Uiso  0.012670 H
   H393       1.0     0.734680     0.840830     0.909630    Uiso  0.012670 H
   H394       1.0     0.749270     0.814710     0.883510    Uiso  0.012670 H
   H395       1.0     0.824460     0.863050     0.928260    Uiso  0.012670 H
   H396       1.0     0.778690     0.817640     0.950010    Uiso  0.012670 H
   H397       1.0     0.583020     0.039390     0.078240    Uiso  0.012670 H
   H398       1.0     0.667100     0.011580     0.050500    Uiso  0.012670 H
   H399       1.0     0.541510     0.996260     0.094210    Uiso  0.012670 H
   H400       1.0     0.514430     0.007590     0.070020    Uiso  0.012670 H
   H401       1.0     0.583020     0.920830     0.084330    Uiso  0.012670 H
   H402       1.0     0.556060     0.932030     0.060390    Uiso  0.012670 H
   H403       1.0     0.639100     0.908930     0.977580    Uiso  0.012670 H
   H404       1.0     0.591650     0.924510     0.993350    Uiso  0.012670 H
   H405       1.0     0.725920     0.992700     0.939410    Uiso  0.012670 H
   H406       1.0     0.703100     0.035480     0.945170    Uiso  0.012670 H
   H407       1.0     0.691050     0.020720     0.881860    Uiso  0.012670 H
   H408       1.0     0.668690     0.062890     0.887400    Uiso  0.012670 H
   Fe49       1.0     0.135770     0.966160     0.592300    Uiso  0.012670 Fe
   Fe50       1.0     0.943440     0.890370     0.719660    Uiso  0.012670 Fe
   C697       1.0     0.827600     0.789080     0.702770    Uiso  0.012670 C
   C698       1.0     0.888980     0.850450     0.737530    Uiso  0.012670 C
   C699       1.0     0.873970     0.835450     0.745970    Uiso  0.012670 C
   C700       1.0     0.933210     0.844790     0.822540    Uiso  0.012670 C
   C701       1.0     0.937730     0.867800     0.775110    Uiso  0.012670 C
   C702       1.0     0.939110     0.843590     0.798330    Uiso  0.012670 C
   C703       1.0     0.945420     0.819320     0.796960    Uiso  0.012670 C
   C704       1.0     0.064060     0.041630     0.601570    Uiso  0.012670 C
   C705       1.0     0.090640     0.996950     0.624990    Uiso  0.012670 C
   C706       1.0     0.067820     0.022050     0.625060    Uiso  0.012670 C
   C707       1.0     0.048550     0.026100     0.648570    Uiso  0.012670 C
   C708       1.0     0.087030     0.982010     0.544840    Uiso  0.012670 C
   C709       1.0     0.105960     0.950390     0.581690    Uiso  0.012670 C
   C710       1.0     0.091300     0.957600     0.564700    Uiso  0.012670 C
   C711       1.0     0.073190     0.988480     0.529170    Uiso  0.012670 C
   C712       1.0     0.046900     0.978010     0.517390    Uiso  0.012670 C
   C713       1.0     0.063250     0.970730     0.532740    Uiso  0.012670 C
   C714       1.0     0.081490     0.939840     0.568100    Uiso  0.012670 C
   C715       1.0     0.067780     0.946260     0.552430    Uiso  0.012670 C
   C716       1.0     0.965750     0.927360     0.629010    Uiso  0.012670 C
   C717       1.0     0.974800     0.936370     0.601590    Uiso  0.012670 C
   C718       1.0     0.927760     0.008060     0.713680    Uiso  0.012670 C
   C719       1.0     0.908340     0.976960     0.721700    Uiso  0.012670 C
   C720       1.0     0.910280     0.003280     0.710130    Uiso  0.012670 C
   C721       1.0     0.931110     0.032500     0.700620    Uiso  0.012670 C
   C722       1.0     0.172040     0.917430     0.581920    Uiso  0.012670 C
   C723       1.0     0.917010     0.052530     0.683850    Uiso  0.012670 C
   C724       1.0     0.895620     0.023620     0.694080    Uiso  0.012670 C
   C725       1.0     0.898890     0.047870     0.681190    Uiso  0.012670 C
   O409       1.0     0.824410     0.788970     0.747860    Uiso  0.012670 O
   O410       1.0     0.916730     0.881170     0.724750    Uiso  0.012670 O
   O411       1.0     0.841990     0.806480     0.765230    Uiso  0.012670 O
   O412       1.0     0.943630     0.866300     0.753270    Uiso  0.012670 O
   O413       1.0     0.889180     0.930310     0.778240    Uiso  0.012670 O
   O414       1.0     0.106590     0.993740     0.603190    Uiso  0.012670 O
   O415       1.0     0.157150     0.969020     0.603300    Uiso  0.012670 O
   O416       1.0     0.116040     0.966100     0.577230    Uiso  0.012670 O
   O417       1.0     0.107950     0.928510     0.600000    Uiso  0.012670 O
   O418       1.0     0.042030     0.000730     0.500600    Uiso  0.012670 O
   O419       1.0     0.037820     0.961330     0.522290    Uiso  0.012670 O
   O420       1.0     0.946210     0.910740     0.684440    Uiso  0.012670 O
   O421       1.0     0.991990     0.956540     0.547510    Uiso  0.012670 O
   O422       1.0     0.918880     0.959840     0.738890    Uiso  0.012670 O
   O423       1.0     0.972540     0.896680     0.713430    Uiso  0.012670 O
   O424       1.0     0.165900     0.941450     0.577730    Uiso  0.012670 O
   O425       1.0     0.092630     0.910930     0.650570    Uiso  0.012670 O
   H409       1.0     0.842710     0.773780     0.710980    Uiso  0.012670 H
   H410       1.0     0.909630     0.840830     0.734680    Uiso  0.012670 H
   H411       1.0     0.883510     0.814710     0.749270    Uiso  0.012670 H
   H412       1.0     0.928260     0.863050     0.824460    Uiso  0.012670 H
   H413       1.0     0.950010     0.817640     0.778690    Uiso  0.012670 H
   H414       1.0     0.078240     0.039390     0.583020    Uiso  0.012670 H
   H415       1.0     0.050500     0.011580     0.667100    Uiso  0.012670 H
   H416       1.0     0.094210     0.996260     0.541510    Uiso  0.012670 H
   H417       1.0     0.070020     0.007590     0.514430    Uiso  0.012670 H
   H418       1.0     0.084330     0.920830     0.583020    Uiso  0.012670 H
   H419       1.0     0.060390     0.932030     0.556060    Uiso  0.012670 H
   H420       1.0     0.977580     0.908930     0.639100    Uiso  0.012670 H
   H421       1.0     0.993350     0.924510     0.591650    Uiso  0.012670 H
   H422       1.0     0.939410     0.992700     0.725920    Uiso  0.012670 H
   H423       1.0     0.945170     0.035480     0.703100    Uiso  0.012670 H
   H424       1.0     0.881860     0.020720     0.691050    Uiso  0.012670 H
   H425       1.0     0.887400     0.062890     0.668690    Uiso  0.012670 H
   Fe51       1.0     0.966160     0.135770     0.305770    Uiso  0.012670 Fe
   Fe52       1.0     0.890370     0.943440     0.446520    Uiso  0.012670 Fe
   C726       1.0     0.789080     0.827600     0.680560    Uiso  0.012670 C
   C727       1.0     0.850450     0.888980     0.523040    Uiso  0.012670 C
   C728       1.0     0.835450     0.873970     0.544610    Uiso  0.012670 C
   C729       1.0     0.844790     0.933210     0.399460    Uiso  0.012670 C
   C730       1.0     0.867800     0.937730     0.419370    Uiso  0.012670 C
   C731       1.0     0.843590     0.939110     0.418960    Uiso  0.012670 C
   C732       1.0     0.819320     0.945420     0.438300    Uiso  0.012670 C
   C733       1.0     0.041630     0.064060     0.292740    Uiso  0.012670 C
   C734       1.0     0.996950     0.090640     0.287420    Uiso  0.012670 C
   C735       1.0     0.022050     0.067820     0.285060    Uiso  0.012670 C
   C736       1.0     0.026100     0.048550     0.276780    Uiso  0.012670 C
   C737       1.0     0.982010     0.087030     0.386110    Uiso  0.012670 C
   C738       1.0     0.950390     0.105960     0.361960    Uiso  0.012670 C
   C739       1.0     0.957600     0.091300     0.386400    Uiso  0.012670 C
   C740       1.0     0.988480     0.073190     0.409150    Uiso  0.012670 C
   C741       1.0     0.978010     0.046900     0.457700    Uiso  0.012670 C
   C742       1.0     0.970730     0.063250     0.433280    Uiso  0.012670 C
   C743       1.0     0.939840     0.081490     0.410570    Uiso  0.012670 C
   C744       1.0     0.946260     0.067780     0.433530    Uiso  0.012670 C
   C745       1.0     0.927360     0.965750     0.477880    Uiso  0.012670 C
   C746       1.0     0.936370     0.974800     0.487240    Uiso  0.012670 C
   C747       1.0     0.008060     0.927760     0.350500    Uiso  0.012670 C
   C748       1.0     0.976960     0.908340     0.393000    Uiso  0.012670 C
   C749       1.0     0.003280     0.910280     0.376310    Uiso  0.012670 C
   C750       1.0     0.032500     0.931110     0.335770    Uiso  0.012670 C
   C751       1.0     0.917430     0.172040     0.328620    Uiso  0.012670 C
   C752       1.0     0.052530     0.917010     0.346610    Uiso  0.012670 C
   C753       1.0     0.023620     0.895620     0.386690    Uiso  0.012670 C
   C754       1.0     0.047870     0.898890     0.372060    Uiso  0.012670 C
   O426       1.0     0.788970     0.824410     0.638760    Uiso  0.012670 O
   O427       1.0     0.881170     0.916730     0.477350    Uiso  0.012670 O
   O428       1.0     0.806480     0.841990     0.586300    Uiso  0.012670 O
   O429       1.0     0.866300     0.943630     0.436800    Uiso  0.012670 O
   O430       1.0     0.930310     0.889180     0.402270    Uiso  0.012670 O
   O431       1.0     0.993740     0.106590     0.296480    Uiso  0.012670 O
   O432       1.0     0.969020     0.157150     0.270540    Uiso  0.012670 O
   O433       1.0     0.966100     0.116040     0.340630    Uiso  0.012670 O
   O434       1.0     0.928510     0.107950     0.363530    Uiso  0.012670 O
   O435       1.0     0.000730     0.042030     0.456640    Uiso  0.012670 O
   O436       1.0     0.961330     0.037820     0.478570    Uiso  0.012670 O
   O437       1.0     0.910740     0.946210     0.458600    Uiso  0.012670 O
   O438       1.0     0.956540     0.991990     0.503960    Uiso  0.012670 O
   O439       1.0     0.959840     0.918880     0.382380    Uiso  0.012670 O
   O440       1.0     0.896680     0.972540     0.417360    Uiso  0.012670 O
   O441       1.0     0.941450     0.165900     0.314920    Uiso  0.012670 O
   O442       1.0     0.910930     0.092630     0.345860    Uiso  0.012670 O
   H426       1.0     0.773780     0.842710     0.672530    Uiso  0.012670 H
   H427       1.0     0.840830     0.909630     0.514850    Uiso  0.012670 H
   H428       1.0     0.814710     0.883510     0.552510    Uiso  0.012670 H
   H429       1.0     0.863050     0.928260     0.384230    Uiso  0.012670 H
   H430       1.0     0.817640     0.950010     0.453660    Uiso  0.012670 H
   H431       1.0     0.039390     0.078240     0.299360    Uiso  0.012670 H
   H432       1.0     0.011580     0.050500     0.270820    Uiso  0.012670 H
   H433       1.0     0.996260     0.094210     0.368010    Uiso  0.012670 H
   H434       1.0     0.007590     0.070020     0.407970    Uiso  0.012670 H
   H435       1.0     0.920830     0.084330     0.411810    Uiso  0.012670 H
   H436       1.0     0.932030     0.060390     0.451510    Uiso  0.012670 H
   H437       1.0     0.908930     0.977580     0.474390    Uiso  0.012670 H
   H438       1.0     0.924510     0.993350     0.490490    Uiso  0.012670 H
   H439       1.0     0.992700     0.939410     0.341980    Uiso  0.012670 H
   H440       1.0     0.035480     0.945170     0.316240    Uiso  0.012670 H
   H441       1.0     0.020720     0.881860     0.406370    Uiso  0.012670 H
   H442       1.0     0.062890     0.887400     0.381020    Uiso  0.012670 H
   Fe53       1.0     0.592300     0.305770     0.135770    Uiso  0.012670 Fe
   Fe54       1.0     0.719660     0.446520     0.943440    Uiso  0.012670 Fe
   C755       1.0     0.702770     0.680560     0.827600    Uiso  0.012670 C
   C756       1.0     0.737530     0.523040     0.888980    Uiso  0.012670 C
   C757       1.0     0.745970     0.544610     0.873970    Uiso  0.012670 C
   C758       1.0     0.822540     0.399460     0.933210    Uiso  0.012670 C
   C759       1.0     0.775110     0.419370     0.937730    Uiso  0.012670 C
   C760       1.0     0.798330     0.418960     0.939110    Uiso  0.012670 C
   C761       1.0     0.796960     0.438300     0.945420    Uiso  0.012670 C
   C762       1.0     0.601570     0.292740     0.064060    Uiso  0.012670 C
   C763       1.0     0.624990     0.287420     0.090640    Uiso  0.012670 C
   C764       1.0     0.625060     0.285060     0.067820    Uiso  0.012670 C
   C765       1.0     0.648570     0.276780     0.048550    Uiso  0.012670 C
   C766       1.0     0.544840     0.386110     0.087030    Uiso  0.012670 C
   C767       1.0     0.581690     0.361960     0.105960    Uiso  0.012670 C
   C768       1.0     0.564700     0.386400     0.091300    Uiso  0.012670 C
   C769       1.0     0.529170     0.409150     0.073190    Uiso  0.012670 C
   C770       1.0     0.517390     0.457700     0.046900    Uiso  0.012670 C
   C771       1.0     0.532740     0.433280     0.063250    Uiso  0.012670 C
   C772       1.0     0.568100     0.410570     0.081490    Uiso  0.012670 C
   C773       1.0     0.552430     0.433530     0.067780    Uiso  0.012670 C
   C774       1.0     0.629010     0.477880     0.965750    Uiso  0.012670 C
   C775       1.0     0.601590     0.487240     0.974800    Uiso  0.012670 C
   C776       1.0     0.713680     0.350500     0.927760    Uiso  0.012670 C
   C777       1.0     0.721700     0.393000     0.908340    Uiso  0.012670 C
   C778       1.0     0.710130     0.376310     0.910280    Uiso  0.012670 C
   C779       1.0     0.700620     0.335770     0.931110    Uiso  0.012670 C
   C780       1.0     0.581920     0.328620     0.172040    Uiso  0.012670 C
   C781       1.0     0.683850     0.346610     0.917010    Uiso  0.012670 C
   C782       1.0     0.694080     0.386690     0.895620    Uiso  0.012670 C
   C783       1.0     0.681190     0.372060     0.898890    Uiso  0.012670 C
   O443       1.0     0.747860     0.638760     0.824410    Uiso  0.012670 O
   O444       1.0     0.724750     0.477350     0.916730    Uiso  0.012670 O
   O445       1.0     0.765230     0.586300     0.841990    Uiso  0.012670 O
   O446       1.0     0.753270     0.436800     0.943630    Uiso  0.012670 O
   O447       1.0     0.778240     0.402270     0.889180    Uiso  0.012670 O
   O448       1.0     0.603190     0.296480     0.106590    Uiso  0.012670 O
   O449       1.0     0.603300     0.270540     0.157150    Uiso  0.012670 O
   O450       1.0     0.577230     0.340630     0.116040    Uiso  0.012670 O
   O451       1.0     0.600000     0.363530     0.107950    Uiso  0.012670 O
   O452       1.0     0.500600     0.456640     0.042030    Uiso  0.012670 O
   O453       1.0     0.522290     0.478570     0.037820    Uiso  0.012670 O
   O454       1.0     0.684440     0.458600     0.946210    Uiso  0.012670 O
   O455       1.0     0.547510     0.503960     0.991990    Uiso  0.012670 O
   O456       1.0     0.738890     0.382380     0.918880    Uiso  0.012670 O
   O457       1.0     0.713430     0.417360     0.972540    Uiso  0.012670 O
   O458       1.0     0.577730     0.314920     0.165900    Uiso  0.012670 O
   O459       1.0     0.650570     0.345860     0.092630    Uiso  0.012670 O
   H443       1.0     0.710980     0.672530     0.842710    Uiso  0.012670 H
   H444       1.0     0.734680     0.514850     0.909630    Uiso  0.012670 H
   H445       1.0     0.749270     0.552510     0.883510    Uiso  0.012670 H
   H446       1.0     0.824460     0.384230     0.928260    Uiso  0.012670 H
   H447       1.0     0.778690     0.453660     0.950010    Uiso  0.012670 H
   H448       1.0     0.583020     0.299360     0.078240    Uiso  0.012670 H
   H449       1.0     0.667100     0.270820     0.050500    Uiso  0.012670 H
   H450       1.0     0.541510     0.368010     0.094210    Uiso  0.012670 H
   H451       1.0     0.514430     0.407970     0.070020    Uiso  0.012670 H
   H452       1.0     0.583020     0.411810     0.084330    Uiso  0.012670 H
   H453       1.0     0.556060     0.451510     0.060390    Uiso  0.012670 H
   H454       1.0     0.639100     0.474390     0.977580    Uiso  0.012670 H
   H455       1.0     0.591650     0.490490     0.993350    Uiso  0.012670 H
   H456       1.0     0.725920     0.341980     0.939410    Uiso  0.012670 H
   H457       1.0     0.703100     0.316240     0.945170    Uiso  0.012670 H
   H458       1.0     0.691050     0.406370     0.881860    Uiso  0.012670 H
   H459       1.0     0.668690     0.381020     0.887400    Uiso  0.012670 H
   Fe55       1.0     0.305770     0.592300     0.966160    Uiso  0.012670 Fe
   Fe56       1.0     0.446520     0.719660     0.890370    Uiso  0.012670 Fe
   C784       1.0     0.680560     0.702770     0.789080    Uiso  0.012670 C
   C785       1.0     0.523040     0.737530     0.850450    Uiso  0.012670 C
   C786       1.0     0.544610     0.745970     0.835450    Uiso  0.012670 C
   C787       1.0     0.399460     0.822540     0.844790    Uiso  0.012670 C
   C788       1.0     0.419370     0.775110     0.867800    Uiso  0.012670 C
   C789       1.0     0.418960     0.798330     0.843590    Uiso  0.012670 C
   C790       1.0     0.438300     0.796960     0.819320    Uiso  0.012670 C
   C791       1.0     0.292740     0.601570     0.041630    Uiso  0.012670 C
   C792       1.0     0.287420     0.624990     0.996950    Uiso  0.012670 C
   C793       1.0     0.285060     0.625060     0.022050    Uiso  0.012670 C
   C794       1.0     0.276780     0.648570     0.026100    Uiso  0.012670 C
   C795       1.0     0.386110     0.544840     0.982010    Uiso  0.012670 C
   C796       1.0     0.361960     0.581690     0.950390    Uiso  0.012670 C
   C797       1.0     0.386400     0.564700     0.957600    Uiso  0.012670 C
   C798       1.0     0.409150     0.529170     0.988480    Uiso  0.012670 C
   C799       1.0     0.457700     0.517390     0.978010    Uiso  0.012670 C
   C800       1.0     0.433280     0.532740     0.970730    Uiso  0.012670 C
   C801       1.0     0.410570     0.568100     0.939840    Uiso  0.012670 C
   C802       1.0     0.433530     0.552430     0.946260    Uiso  0.012670 C
   C803       1.0     0.477880     0.629010     0.927360    Uiso  0.012670 C
   C804       1.0     0.487240     0.601590     0.936370    Uiso  0.012670 C
   C805       1.0     0.350500     0.713680     0.008060    Uiso  0.012670 C
   C806       1.0     0.393000     0.721700     0.976960    Uiso  0.012670 C
   C807       1.0     0.376310     0.710130     0.003280    Uiso  0.012670 C
   C808       1.0     0.335770     0.700620     0.032500    Uiso  0.012670 C
   C809       1.0     0.328620     0.581920     0.917430    Uiso  0.012670 C
   C810       1.0     0.346610     0.683850     0.052530    Uiso  0.012670 C
   C811       1.0     0.386690     0.694080     0.023620    Uiso  0.012670 C
   C812       1.0     0.372060     0.681190     0.047870    Uiso  0.012670 C
   O460       1.0     0.638760     0.747860     0.788970    Uiso  0.012670 O
   O461       1.0     0.477350     0.724750     0.881170    Uiso  0.012670 O
   O462       1.0     0.586300     0.765230     0.806480    Uiso  0.012670 O
   O463       1.0     0.436800     0.753270     0.866300    Uiso  0.012670 O
   O464       1.0     0.402270     0.778240     0.930310    Uiso  0.012670 O
   O465       1.0     0.296480     0.603190     0.993740    Uiso  0.012670 O
   O466       1.0     0.270540     0.603300     0.969020    Uiso  0.012670 O
   O467       1.0     0.340630     0.577230     0.966100    Uiso  0.012670 O
   O468       1.0     0.363530     0.600000     0.928510    Uiso  0.012670 O
   O469       1.0     0.456640     0.500600     0.000730    Uiso  0.012670 O
   O470       1.0     0.478570     0.522290     0.961330    Uiso  0.012670 O
   O471       1.0     0.458600     0.684440     0.910740    Uiso  0.012670 O
   O472       1.0     0.503960     0.547510     0.956540    Uiso  0.012670 O
   O473       1.0     0.382380     0.738890     0.959840    Uiso  0.012670 O
   O474       1.0     0.417360     0.713430     0.896680    Uiso  0.012670 O
   O475       1.0     0.314920     0.577730     0.941450    Uiso  0.012670 O
   O476       1.0     0.345860     0.650570     0.910930    Uiso  0.012670 O
   H460       1.0     0.672530     0.710980     0.773780    Uiso  0.012670 H
   H461       1.0     0.514850     0.734680     0.840830    Uiso  0.012670 H
   H462       1.0     0.552510     0.749270     0.814710    Uiso  0.012670 H
   H463       1.0     0.384230     0.824460     0.863050    Uiso  0.012670 H
   H464       1.0     0.453660     0.778690     0.817640    Uiso  0.012670 H
   H465       1.0     0.299360     0.583020     0.039390    Uiso  0.012670 H
   H466       1.0     0.270820     0.667100     0.011580    Uiso  0.012670 H
   H467       1.0     0.368010     0.541510     0.996260    Uiso  0.012670 H
   H468       1.0     0.407970     0.514430     0.007590    Uiso  0.012670 H
   H469       1.0     0.411810     0.583020     0.920830    Uiso  0.012670 H
   H470       1.0     0.451510     0.556060     0.932030    Uiso  0.012670 H
   H471       1.0     0.474390     0.639100     0.908930    Uiso  0.012670 H
   H472       1.0     0.490490     0.591650     0.924510    Uiso  0.012670 H
   H473       1.0     0.341980     0.725920     0.992700    Uiso  0.012670 H
   H474       1.0     0.316240     0.703100     0.035480    Uiso  0.012670 H
   H475       1.0     0.406370     0.691050     0.020720    Uiso  0.012670 H
   H476       1.0     0.381020     0.668690     0.062890    Uiso  0.012670 H
   Fe57       1.0     0.592300     0.135770     0.966160    Uiso  0.012670 Fe
   Fe58       1.0     0.719660     0.943440     0.890370    Uiso  0.012670 Fe
   C813       1.0     0.702770     0.827600     0.789080    Uiso  0.012670 C
   C814       1.0     0.737530     0.888980     0.850450    Uiso  0.012670 C
   C815       1.0     0.745970     0.873970     0.835450    Uiso  0.012670 C
   C816       1.0     0.822540     0.933210     0.844790    Uiso  0.012670 C
   C817       1.0     0.775110     0.937730     0.867800    Uiso  0.012670 C
   C818       1.0     0.798330     0.939110     0.843590    Uiso  0.012670 C
   C819       1.0     0.796960     0.945420     0.819320    Uiso  0.012670 C
   C820       1.0     0.601570     0.064060     0.041630    Uiso  0.012670 C
   C821       1.0     0.624990     0.090640     0.996950    Uiso  0.012670 C
   C822       1.0     0.625060     0.067820     0.022050    Uiso  0.012670 C
   C823       1.0     0.648570     0.048550     0.026100    Uiso  0.012670 C
   C824       1.0     0.544840     0.087030     0.982010    Uiso  0.012670 C
   C825       1.0     0.581690     0.105960     0.950390    Uiso  0.012670 C
   C826       1.0     0.564700     0.091300     0.957600    Uiso  0.012670 C
   C827       1.0     0.529170     0.073190     0.988480    Uiso  0.012670 C
   C828       1.0     0.517390     0.046900     0.978010    Uiso  0.012670 C
   C829       1.0     0.532740     0.063250     0.970730    Uiso  0.012670 C
   C830       1.0     0.568100     0.081490     0.939840    Uiso  0.012670 C
   C831       1.0     0.552430     0.067780     0.946260    Uiso  0.012670 C
   C832       1.0     0.629010     0.965750     0.927360    Uiso  0.012670 C
   C833       1.0     0.601590     0.974800     0.936370    Uiso  0.012670 C
   C834       1.0     0.713680     0.927760     0.008060    Uiso  0.012670 C
   C835       1.0     0.721700     0.908340     0.976960    Uiso  0.012670 C
   C836       1.0     0.710130     0.910280     0.003280    Uiso  0.012670 C
   C837       1.0     0.700620     0.931110     0.032500    Uiso  0.012670 C
   C838       1.0     0.581920     0.172040     0.917430    Uiso  0.012670 C
   C839       1.0     0.683850     0.917010     0.052530    Uiso  0.012670 C
   C840       1.0     0.694080     0.895620     0.023620    Uiso  0.012670 C
   C841       1.0     0.681190     0.898890     0.047870    Uiso  0.012670 C
   O477       1.0     0.747860     0.824410     0.788970    Uiso  0.012670 O
   O478       1.0     0.724750     0.916730     0.881170    Uiso  0.012670 O
   O479       1.0     0.765230     0.841990     0.806480    Uiso  0.012670 O
   O480       1.0     0.753270     0.943630     0.866300    Uiso  0.012670 O
   O481       1.0     0.778240     0.889180     0.930310    Uiso  0.012670 O
   O482       1.0     0.603190     0.106590     0.993740    Uiso  0.012670 O
   O483       1.0     0.603300     0.157150     0.969020    Uiso  0.012670 O
   O484       1.0     0.577230     0.116040     0.966100    Uiso  0.012670 O
   O485       1.0     0.600000     0.107950     0.928510    Uiso  0.012670 O
   O486       1.0     0.500600     0.042030     0.000730    Uiso  0.012670 O
   O487       1.0     0.522290     0.037820     0.961330    Uiso  0.012670 O
   O488       1.0     0.684440     0.946210     0.910740    Uiso  0.012670 O
   O489       1.0     0.547510     0.991990     0.956540    Uiso  0.012670 O
   O490       1.0     0.738890     0.918880     0.959840    Uiso  0.012670 O
   O491       1.0     0.713430     0.972540     0.896680    Uiso  0.012670 O
   O492       1.0     0.577730     0.165900     0.941450    Uiso  0.012670 O
   O493       1.0     0.650570     0.092630     0.910930    Uiso  0.012670 O
   H477       1.0     0.710980     0.842710     0.773780    Uiso  0.012670 H
   H478       1.0     0.734680     0.909630     0.840830    Uiso  0.012670 H
   H479       1.0     0.749270     0.883510     0.814710    Uiso  0.012670 H
   H480       1.0     0.824460     0.928260     0.863050    Uiso  0.012670 H
   H481       1.0     0.778690     0.950010     0.817640    Uiso  0.012670 H
   H482       1.0     0.583020     0.078240     0.039390    Uiso  0.012670 H
   H483       1.0     0.667100     0.050500     0.011580    Uiso  0.012670 H
   H484       1.0     0.541510     0.094210     0.996260    Uiso  0.012670 H
   H485       1.0     0.514430     0.070020     0.007590    Uiso  0.012670 H
   H486       1.0     0.583020     0.084330     0.920830    Uiso  0.012670 H
   H487       1.0     0.556060     0.060390     0.932030    Uiso  0.012670 H
   H488       1.0     0.639100     0.977580     0.908930    Uiso  0.012670 H
   H489       1.0     0.591650     0.993350     0.924510    Uiso  0.012670 H
   H490       1.0     0.725920     0.939410     0.992700    Uiso  0.012670 H
   H491       1.0     0.703100     0.945170     0.035480    Uiso  0.012670 H
   H492       1.0     0.691050     0.881860     0.020720    Uiso  0.012670 H
   H493       1.0     0.668690     0.887400     0.062890    Uiso  0.012670 H
   Fe59       1.0     0.305770     0.966160     0.135770    Uiso  0.012670 Fe
   Fe60       1.0     0.446520     0.890370     0.943440    Uiso  0.012670 Fe
   C842       1.0     0.680560     0.789080     0.827600    Uiso  0.012670 C
   C843       1.0     0.523040     0.850450     0.888980    Uiso  0.012670 C
   C844       1.0     0.544610     0.835450     0.873970    Uiso  0.012670 C
   C845       1.0     0.399460     0.844790     0.933210    Uiso  0.012670 C
   C846       1.0     0.419370     0.867800     0.937730    Uiso  0.012670 C
   C847       1.0     0.418960     0.843590     0.939110    Uiso  0.012670 C
   C848       1.0     0.438300     0.819320     0.945420    Uiso  0.012670 C
   C849       1.0     0.292740     0.041630     0.064060    Uiso  0.012670 C
   C850       1.0     0.287420     0.996950     0.090640    Uiso  0.012670 C
   C851       1.0     0.285060     0.022050     0.067820    Uiso  0.012670 C
   C852       1.0     0.276780     0.026100     0.048550    Uiso  0.012670 C
   C853       1.0     0.386110     0.982010     0.087030    Uiso  0.012670 C
   C854       1.0     0.361960     0.950390     0.105960    Uiso  0.012670 C
   C855       1.0     0.386400     0.957600     0.091300    Uiso  0.012670 C
   C856       1.0     0.409150     0.988480     0.073190    Uiso  0.012670 C
   C857       1.0     0.457700     0.978010     0.046900    Uiso  0.012670 C
   C858       1.0     0.433280     0.970730     0.063250    Uiso  0.012670 C
   C859       1.0     0.410570     0.939840     0.081490    Uiso  0.012670 C
   C860       1.0     0.433530     0.946260     0.067780    Uiso  0.012670 C
   C861       1.0     0.477880     0.927360     0.965750    Uiso  0.012670 C
   C862       1.0     0.487240     0.936370     0.974800    Uiso  0.012670 C
   C863       1.0     0.350500     0.008060     0.927760    Uiso  0.012670 C
   C864       1.0     0.393000     0.976960     0.908340    Uiso  0.012670 C
   C865       1.0     0.376310     0.003280     0.910280    Uiso  0.012670 C
   C866       1.0     0.335770     0.032500     0.931110    Uiso  0.012670 C
   C867       1.0     0.328620     0.917430     0.172040    Uiso  0.012670 C
   C868       1.0     0.346610     0.052530     0.917010    Uiso  0.012670 C
   C869       1.0     0.386690     0.023620     0.895620    Uiso  0.012670 C
   C870       1.0     0.372060     0.047870     0.898890    Uiso  0.012670 C
   O494       1.0     0.638760     0.788970     0.824410    Uiso  0.012670 O
   O495       1.0     0.477350     0.881170     0.916730    Uiso  0.012670 O
   O496       1.0     0.586300     0.806480     0.841990    Uiso  0.012670 O
   O497       1.0     0.436800     0.866300     0.943630    Uiso  0.012670 O
   O498       1.0     0.402270     0.930310     0.889180    Uiso  0.012670 O
   O499       1.0     0.296480     0.993740     0.106590    Uiso  0.012670 O
   O500       1.0     0.270540     0.969020     0.157150    Uiso  0.012670 O
   O501       1.0     0.340630     0.966100     0.116040    Uiso  0.012670 O
   O502       1.0     0.363530     0.928510     0.107950    Uiso  0.012670 O
   O503       1.0     0.456640     0.000730     0.042030    Uiso  0.012670 O
   O504       1.0     0.478570     0.961330     0.037820    Uiso  0.012670 O
   O505       1.0     0.458600     0.910740     0.946210    Uiso  0.012670 O
   O506       1.0     0.503960     0.956540     0.991990    Uiso  0.012670 O
   O507       1.0     0.382380     0.959840     0.918880    Uiso  0.012670 O
   O508       1.0     0.417360     0.896680     0.972540    Uiso  0.012670 O
   O509       1.0     0.314920     0.941450     0.165900    Uiso  0.012670 O
   O510       1.0     0.345860     0.910930     0.092630    Uiso  0.012670 O
   H494       1.0     0.672530     0.773780     0.842710    Uiso  0.012670 H
   H495       1.0     0.514850     0.840830     0.909630    Uiso  0.012670 H
   H496       1.0     0.552510     0.814710     0.883510    Uiso  0.012670 H
   H497       1.0     0.384230     0.863050     0.928260    Uiso  0.012670 H
   H498       1.0     0.453660     0.817640     0.950010    Uiso  0.012670 H
   H499       1.0     0.299360     0.039390     0.078240    Uiso  0.012670 H
   H500       1.0     0.270820     0.011580     0.050500    Uiso  0.012670 H
   H501       1.0     0.368010     0.996260     0.094210    Uiso  0.012670 H
   H502       1.0     0.407970     0.007590     0.070020    Uiso  0.012670 H
   H503       1.0     0.411810     0.920830     0.084330    Uiso  0.012670 H
   H504       1.0     0.451510     0.932030     0.060390    Uiso  0.012670 H
   H505       1.0     0.474390     0.908930     0.977580    Uiso  0.012670 H
   H506       1.0     0.490490     0.924510     0.993350    Uiso  0.012670 H
   H507       1.0     0.341980     0.992700     0.939410    Uiso  0.012670 H
   H508       1.0     0.316240     0.035480     0.945170    Uiso  0.012670 H
   H509       1.0     0.406370     0.020720     0.881860    Uiso  0.012670 H
   H510       1.0     0.381020     0.062890     0.887400    Uiso  0.012670 H
   Fe61       1.0     0.135770     0.592300     0.305770    Uiso  0.012670 Fe
   Fe62       1.0     0.943440     0.719660     0.446520    Uiso  0.012670 Fe
   C871       1.0     0.827600     0.702770     0.680560    Uiso  0.012670 C
   C872       1.0     0.888980     0.737530     0.523040    Uiso  0.012670 C
   C873       1.0     0.873970     0.745970     0.544610    Uiso  0.012670 C
   C874       1.0     0.933210     0.822540     0.399460    Uiso  0.012670 C
   C875       1.0     0.937730     0.775110     0.419370    Uiso  0.012670 C
   C876       1.0     0.939110     0.798330     0.418960    Uiso  0.012670 C
   C877       1.0     0.945420     0.796960     0.438300    Uiso  0.012670 C
   C878       1.0     0.064060     0.601570     0.292740    Uiso  0.012670 C
   C879       1.0     0.090640     0.624990     0.287420    Uiso  0.012670 C
   C880       1.0     0.067820     0.625060     0.285060    Uiso  0.012670 C
   C881       1.0     0.048550     0.648570     0.276780    Uiso  0.012670 C
   C882       1.0     0.087030     0.544840     0.386110    Uiso  0.012670 C
   C883       1.0     0.105960     0.581690     0.361960    Uiso  0.012670 C
   C884       1.0     0.091300     0.564700     0.386400    Uiso  0.012670 C
   C885       1.0     0.073190     0.529170     0.409150    Uiso  0.012670 C
   C886       1.0     0.046900     0.517390     0.457700    Uiso  0.012670 C
   C887       1.0     0.063250     0.532740     0.433280    Uiso  0.012670 C
   C888       1.0     0.081490     0.568100     0.410570    Uiso  0.012670 C
   C889       1.0     0.067780     0.552430     0.433530    Uiso  0.012670 C
   C890       1.0     0.965750     0.629010     0.477880    Uiso  0.012670 C
   C891       1.0     0.974800     0.601590     0.487240    Uiso  0.012670 C
   C892       1.0     0.927760     0.713680     0.350500    Uiso  0.012670 C
   C893       1.0     0.908340     0.721700     0.393000    Uiso  0.012670 C
   C894       1.0     0.910280     0.710130     0.376310    Uiso  0.012670 C
   C895       1.0     0.931110     0.700620     0.335770    Uiso  0.012670 C
   C896       1.0     0.172040     0.581920     0.328620    Uiso  0.012670 C
   C897       1.0     0.917010     0.683850     0.346610    Uiso  0.012670 C
   C898       1.0     0.895620     0.694080     0.386690    Uiso  0.012670 C
   C899       1.0     0.898890     0.681190     0.372060    Uiso  0.012670 C
   O511       1.0     0.824410     0.747860     0.638760    Uiso  0.012670 O
   O512       1.0     0.916730     0.724750     0.477350    Uiso  0.012670 O
   O513       1.0     0.841990     0.765230     0.586300    Uiso  0.012670 O
   O514       1.0     0.943630     0.753270     0.436800    Uiso  0.012670 O
   O515       1.0     0.889180     0.778240     0.402270    Uiso  0.012670 O
   O516       1.0     0.106590     0.603190     0.296480    Uiso  0.012670 O
   O517       1.0     0.157150     0.603300     0.270540    Uiso  0.012670 O
   O518       1.0     0.116040     0.577230     0.340630    Uiso  0.012670 O
   O519       1.0     0.107950     0.600000     0.363530    Uiso  0.012670 O
   O520       1.0     0.042030     0.500600     0.456640    Uiso  0.012670 O
   O521       1.0     0.037820     0.522290     0.478570    Uiso  0.012670 O
   O522       1.0     0.946210     0.684440     0.458600    Uiso  0.012670 O
   O523       1.0     0.991990     0.547510     0.503960    Uiso  0.012670 O
   O524       1.0     0.918880     0.738890     0.382380    Uiso  0.012670 O
   O525       1.0     0.972540     0.713430     0.417360    Uiso  0.012670 O
   O526       1.0     0.165900     0.577730     0.314920    Uiso  0.012670 O
   O527       1.0     0.092630     0.650570     0.345860    Uiso  0.012670 O
   H511       1.0     0.842710     0.710980     0.672530    Uiso  0.012670 H
   H512       1.0     0.909630     0.734680     0.514850    Uiso  0.012670 H
   H513       1.0     0.883510     0.749270     0.552510    Uiso  0.012670 H
   H514       1.0     0.928260     0.824460     0.384230    Uiso  0.012670 H
   H515       1.0     0.950010     0.778690     0.453660    Uiso  0.012670 H
   H516       1.0     0.078240     0.583020     0.299360    Uiso  0.012670 H
   H517       1.0     0.050500     0.667100     0.270820    Uiso  0.012670 H
   H518       1.0     0.094210     0.541510     0.368010    Uiso  0.012670 H
   H519       1.0     0.070020     0.514430     0.407970    Uiso  0.012670 H
   H520       1.0     0.084330     0.583020     0.411810    Uiso  0.012670 H
   H521       1.0     0.060390     0.556060     0.451510    Uiso  0.012670 H
   H522       1.0     0.977580     0.639100     0.474390    Uiso  0.012670 H
   H523       1.0     0.993350     0.591650     0.490490    Uiso  0.012670 H
   H524       1.0     0.939410     0.725920     0.341980    Uiso  0.012670 H
   H525       1.0     0.945170     0.703100     0.316240    Uiso  0.012670 H
   H526       1.0     0.881860     0.691050     0.406370    Uiso  0.012670 H
   H527       1.0     0.887400     0.668690     0.381020    Uiso  0.012670 H
   Fe63       1.0     0.966160     0.305770     0.592300    Uiso  0.012670 Fe
   Fe64       1.0     0.890370     0.446520     0.719660    Uiso  0.012670 Fe
   C900       1.0     0.789080     0.680560     0.702770    Uiso  0.012670 C
   C901       1.0     0.850450     0.523040     0.737530    Uiso  0.012670 C
   C902       1.0     0.835450     0.544610     0.745970    Uiso  0.012670 C
   C903       1.0     0.844790     0.399460     0.822540    Uiso  0.012670 C
   C904       1.0     0.867800     0.419370     0.775110    Uiso  0.012670 C
   C905       1.0     0.843590     0.418960     0.798330    Uiso  0.012670 C
   C906       1.0     0.819320     0.438300     0.796960    Uiso  0.012670 C
   C907       1.0     0.041630     0.292740     0.601570    Uiso  0.012670 C
   C908       1.0     0.996950     0.287420     0.624990    Uiso  0.012670 C
   C909       1.0     0.022050     0.285060     0.625060    Uiso  0.012670 C
   C910       1.0     0.026100     0.276780     0.648570    Uiso  0.012670 C
   C911       1.0     0.982010     0.386110     0.544840    Uiso  0.012670 C
   C912       1.0     0.950390     0.361960     0.581690    Uiso  0.012670 C
   C913       1.0     0.957600     0.386400     0.564700    Uiso  0.012670 C
   C914       1.0     0.988480     0.409150     0.529170    Uiso  0.012670 C
   C915       1.0     0.978010     0.457700     0.517390    Uiso  0.012670 C
   C916       1.0     0.970730     0.433280     0.532740    Uiso  0.012670 C
   C917       1.0     0.939840     0.410570     0.568100    Uiso  0.012670 C
   C918       1.0     0.946260     0.433530     0.552430    Uiso  0.012670 C
   C919       1.0     0.927360     0.477880     0.629010    Uiso  0.012670 C
   C920       1.0     0.936370     0.487240     0.601590    Uiso  0.012670 C
   C921       1.0     0.008060     0.350500     0.713680    Uiso  0.012670 C
   C922       1.0     0.976960     0.393000     0.721700    Uiso  0.012670 C
   C923       1.0     0.003280     0.376310     0.710130    Uiso  0.012670 C
   C924       1.0     0.032500     0.335770     0.700620    Uiso  0.012670 C
   C925       1.0     0.917430     0.328620     0.581920    Uiso  0.012670 C
   C926       1.0     0.052530     0.346610     0.683850    Uiso  0.012670 C
   C927       1.0     0.023620     0.386690     0.694080    Uiso  0.012670 C
   C928       1.0     0.047870     0.372060     0.681190    Uiso  0.012670 C
   O528       1.0     0.788970     0.638760     0.747860    Uiso  0.012670 O
   O529       1.0     0.881170     0.477350     0.724750    Uiso  0.012670 O
   O530       1.0     0.806480     0.586300     0.765230    Uiso  0.012670 O
   O531       1.0     0.866300     0.436800     0.753270    Uiso  0.012670 O
   O532       1.0     0.930310     0.402270     0.778240    Uiso  0.012670 O
   O533       1.0     0.993740     0.296480     0.603190    Uiso  0.012670 O
   O534       1.0     0.969020     0.270540     0.603300    Uiso  0.012670 O
   O535       1.0     0.966100     0.340630     0.577230    Uiso  0.012670 O
   O536       1.0     0.928510     0.363530     0.600000    Uiso  0.012670 O
   O537       1.0     0.000730     0.456640     0.500600    Uiso  0.012670 O
   O538       1.0     0.961330     0.478570     0.522290    Uiso  0.012670 O
   O539       1.0     0.910740     0.458600     0.684440    Uiso  0.012670 O
   O540       1.0     0.956540     0.503960     0.547510    Uiso  0.012670 O
   O541       1.0     0.959840     0.382380     0.738890    Uiso  0.012670 O
   O542       1.0     0.896680     0.417360     0.713430    Uiso  0.012670 O
   O543       1.0     0.941450     0.314920     0.577730    Uiso  0.012670 O
   O544       1.0     0.910930     0.345860     0.650570    Uiso  0.012670 O
   H528       1.0     0.773780     0.672530     0.710980    Uiso  0.012670 H
   H529       1.0     0.840830     0.514850     0.734680    Uiso  0.012670 H
   H530       1.0     0.814710     0.552510     0.749270    Uiso  0.012670 H
   H531       1.0     0.863050     0.384230     0.824460    Uiso  0.012670 H
   H532       1.0     0.817640     0.453660     0.778690    Uiso  0.012670 H
   H533       1.0     0.039390     0.299360     0.583020    Uiso  0.012670 H
   H534       1.0     0.011580     0.270820     0.667100    Uiso  0.012670 H
   H535       1.0     0.996260     0.368010     0.541510    Uiso  0.012670 H
   H536       1.0     0.007590     0.407970     0.514430    Uiso  0.012670 H
   H537       1.0     0.920830     0.411810     0.583020    Uiso  0.012670 H
   H538       1.0     0.932030     0.451510     0.556060    Uiso  0.012670 H
   H539       1.0     0.908930     0.474390     0.639100    Uiso  0.012670 H
   H540       1.0     0.924510     0.490490     0.591650    Uiso  0.012670 H
   H541       1.0     0.992700     0.341980     0.725920    Uiso  0.012670 H
   H542       1.0     0.035480     0.316240     0.703100    Uiso  0.012670 H
   H543       1.0     0.020720     0.406370     0.691050    Uiso  0.012670 H
   H544       1.0     0.062890     0.381020     0.668690    Uiso  0.012670 H
   Fe65       1.0     0.966160     0.592300     0.135770    Uiso  0.012670 Fe
   Fe66       1.0     0.890370     0.719660     0.943440    Uiso  0.012670 Fe
   C929       1.0     0.789080     0.702770     0.827600    Uiso  0.012670 C
   C930       1.0     0.850450     0.737530     0.888980    Uiso  0.012670 C
   C931       1.0     0.835450     0.745970     0.873970    Uiso  0.012670 C
   C932       1.0     0.844790     0.822540     0.933210    Uiso  0.012670 C
   C933       1.0     0.867800     0.775110     0.937730    Uiso  0.012670 C
   C934       1.0     0.843590     0.798330     0.939110    Uiso  0.012670 C
   C935       1.0     0.819320     0.796960     0.945420    Uiso  0.012670 C
   C936       1.0     0.041630     0.601570     0.064060    Uiso  0.012670 C
   C937       1.0     0.996950     0.624990     0.090640    Uiso  0.012670 C
   C938       1.0     0.022050     0.625060     0.067820    Uiso  0.012670 C
   C939       1.0     0.026100     0.648570     0.048550    Uiso  0.012670 C
   C940       1.0     0.982010     0.544840     0.087030    Uiso  0.012670 C
   C941       1.0     0.950390     0.581690     0.105960    Uiso  0.012670 C
   C942       1.0     0.957600     0.564700     0.091300    Uiso  0.012670 C
   C943       1.0     0.988480     0.529170     0.073190    Uiso  0.012670 C
   C944       1.0     0.978010     0.517390     0.046900    Uiso  0.012670 C
   C945       1.0     0.970730     0.532740     0.063250    Uiso  0.012670 C
   C946       1.0     0.939840     0.568100     0.081490    Uiso  0.012670 C
   C947       1.0     0.946260     0.552430     0.067780    Uiso  0.012670 C
   C948       1.0     0.927360     0.629010     0.965750    Uiso  0.012670 C
   C949       1.0     0.936370     0.601590     0.974800    Uiso  0.012670 C
   C950       1.0     0.008060     0.713680     0.927760    Uiso  0.012670 C
   C951       1.0     0.976960     0.721700     0.908340    Uiso  0.012670 C
   C952       1.0     0.003280     0.710130     0.910280    Uiso  0.012670 C
   C953       1.0     0.032500     0.700620     0.931110    Uiso  0.012670 C
   C954       1.0     0.917430     0.581920     0.172040    Uiso  0.012670 C
   C955       1.0     0.052530     0.683850     0.917010    Uiso  0.012670 C
   C956       1.0     0.023620     0.694080     0.895620    Uiso  0.012670 C
   C957       1.0     0.047870     0.681190     0.898890    Uiso  0.012670 C
   O545       1.0     0.788970     0.747860     0.824410    Uiso  0.012670 O
   O546       1.0     0.881170     0.724750     0.916730    Uiso  0.012670 O
   O547       1.0     0.806480     0.765230     0.841990    Uiso  0.012670 O
   O548       1.0     0.866300     0.753270     0.943630    Uiso  0.012670 O
   O549       1.0     0.930310     0.778240     0.889180    Uiso  0.012670 O
   O550       1.0     0.993740     0.603190     0.106590    Uiso  0.012670 O
   O551       1.0     0.969020     0.603300     0.157150    Uiso  0.012670 O
   O552       1.0     0.966100     0.577230     0.116040    Uiso  0.012670 O
   O553       1.0     0.928510     0.600000     0.107950    Uiso  0.012670 O
   O554       1.0     0.000730     0.500600     0.042030    Uiso  0.012670 O
   O555       1.0     0.961330     0.522290     0.037820    Uiso  0.012670 O
   O556       1.0     0.910740     0.684440     0.946210    Uiso  0.012670 O
   O557       1.0     0.956540     0.547510     0.991990    Uiso  0.012670 O
   O558       1.0     0.959840     0.738890     0.918880    Uiso  0.012670 O
   O559       1.0     0.896680     0.713430     0.972540    Uiso  0.012670 O
   O560       1.0     0.941450     0.577730     0.165900    Uiso  0.012670 O
   O561       1.0     0.910930     0.650570     0.092630    Uiso  0.012670 O
   H545       1.0     0.773780     0.710980     0.842710    Uiso  0.012670 H
   H546       1.0     0.840830     0.734680     0.909630    Uiso  0.012670 H
   H547       1.0     0.814710     0.749270     0.883510    Uiso  0.012670 H
   H548       1.0     0.863050     0.824460     0.928260    Uiso  0.012670 H
   H549       1.0     0.817640     0.778690     0.950010    Uiso  0.012670 H
   H550       1.0     0.039390     0.583020     0.078240    Uiso  0.012670 H
   H551       1.0     0.011580     0.667100     0.050500    Uiso  0.012670 H
   H552       1.0     0.996260     0.541510     0.094210    Uiso  0.012670 H
   H553       1.0     0.007590     0.514430     0.070020    Uiso  0.012670 H
   H554       1.0     0.920830     0.583020     0.084330    Uiso  0.012670 H
   H555       1.0     0.932030     0.556060     0.060390    Uiso  0.012670 H
   H556       1.0     0.908930     0.639100     0.977580    Uiso  0.012670 H
   H557       1.0     0.924510     0.591650     0.993350    Uiso  0.012670 H
   H558       1.0     0.992700     0.725920     0.939410    Uiso  0.012670 H
   H559       1.0     0.035480     0.703100     0.945170    Uiso  0.012670 H
   H560       1.0     0.020720     0.691050     0.881860    Uiso  0.012670 H
   H561       1.0     0.062890     0.668690     0.887400    Uiso  0.012670 H
   Fe67       1.0     0.135770     0.305770     0.966160    Uiso  0.012670 Fe
   Fe68       1.0     0.943440     0.446520     0.890370    Uiso  0.012670 Fe
   C958       1.0     0.827600     0.680560     0.789080    Uiso  0.012670 C
   C959       1.0     0.888980     0.523040     0.850450    Uiso  0.012670 C
   C960       1.0     0.873970     0.544610     0.835450    Uiso  0.012670 C
   C961       1.0     0.933210     0.399460     0.844790    Uiso  0.012670 C
   C962       1.0     0.937730     0.419370     0.867800    Uiso  0.012670 C
   C963       1.0     0.939110     0.418960     0.843590    Uiso  0.012670 C
   C964       1.0     0.945420     0.438300     0.819320    Uiso  0.012670 C
   C965       1.0     0.064060     0.292740     0.041630    Uiso  0.012670 C
   C966       1.0     0.090640     0.287420     0.996950    Uiso  0.012670 C
   C967       1.0     0.067820     0.285060     0.022050    Uiso  0.012670 C
   C968       1.0     0.048550     0.276780     0.026100    Uiso  0.012670 C
   C969       1.0     0.087030     0.386110     0.982010    Uiso  0.012670 C
   C970       1.0     0.105960     0.361960     0.950390    Uiso  0.012670 C
   C971       1.0     0.091300     0.386400     0.957600    Uiso  0.012670 C
   C972       1.0     0.073190     0.409150     0.988480    Uiso  0.012670 C
   C973       1.0     0.046900     0.457700     0.978010    Uiso  0.012670 C
   C974       1.0     0.063250     0.433280     0.970730    Uiso  0.012670 C
   C975       1.0     0.081490     0.410570     0.939840    Uiso  0.012670 C
   C976       1.0     0.067780     0.433530     0.946260    Uiso  0.012670 C
   C977       1.0     0.965750     0.477880     0.927360    Uiso  0.012670 C
   C978       1.0     0.974800     0.487240     0.936370    Uiso  0.012670 C
   C979       1.0     0.927760     0.350500     0.008060    Uiso  0.012670 C
   C980       1.0     0.908340     0.393000     0.976960    Uiso  0.012670 C
   C981       1.0     0.910280     0.376310     0.003280    Uiso  0.012670 C
   C982       1.0     0.931110     0.335770     0.032500    Uiso  0.012670 C
   C983       1.0     0.172040     0.328620     0.917430    Uiso  0.012670 C
   C984       1.0     0.917010     0.346610     0.052530    Uiso  0.012670 C
   C985       1.0     0.895620     0.386690     0.023620    Uiso  0.012670 C
   C986       1.0     0.898890     0.372060     0.047870    Uiso  0.012670 C
   O562       1.0     0.824410     0.638760     0.788970    Uiso  0.012670 O
   O563       1.0     0.916730     0.477350     0.881170    Uiso  0.012670 O
   O564       1.0     0.841990     0.586300     0.806480    Uiso  0.012670 O
   O565       1.0     0.943630     0.436800     0.866300    Uiso  0.012670 O
   O566       1.0     0.889180     0.402270     0.930310    Uiso  0.012670 O
   O567       1.0     0.106590     0.296480     0.993740    Uiso  0.012670 O
   O568       1.0     0.157150     0.270540     0.969020    Uiso  0.012670 O
   O569       1.0     0.116040     0.340630     0.966100    Uiso  0.012670 O
   O570       1.0     0.107950     0.363530     0.928510    Uiso  0.012670 O
   O571       1.0     0.042030     0.456640     0.000730    Uiso  0.012670 O
   O572       1.0     0.037820     0.478570     0.961330    Uiso  0.012670 O
   O573       1.0     0.946210     0.458600     0.910740    Uiso  0.012670 O
   O574       1.0     0.991990     0.503960     0.956540    Uiso  0.012670 O
   O575       1.0     0.918880     0.382380     0.959840    Uiso  0.012670 O
   O576       1.0     0.972540     0.417360     0.896680    Uiso  0.012670 O
   O577       1.0     0.165900     0.314920     0.941450    Uiso  0.012670 O
   O578       1.0     0.092630     0.345860     0.910930    Uiso  0.012670 O
   H562       1.0     0.842710     0.672530     0.773780    Uiso  0.012670 H
   H563       1.0     0.909630     0.514850     0.840830    Uiso  0.012670 H
   H564       1.0     0.883510     0.552510     0.814710    Uiso  0.012670 H
   H565       1.0     0.928260     0.384230     0.863050    Uiso  0.012670 H
   H566       1.0     0.950010     0.453660     0.817640    Uiso  0.012670 H
   H567       1.0     0.078240     0.299360     0.039390    Uiso  0.012670 H
   H568       1.0     0.050500     0.270820     0.011580    Uiso  0.012670 H
   H569       1.0     0.094210     0.368010     0.996260    Uiso  0.012670 H
   H570       1.0     0.070020     0.407970     0.007590    Uiso  0.012670 H
   H571       1.0     0.084330     0.411810     0.920830    Uiso  0.012670 H
   H572       1.0     0.060390     0.451510     0.932030    Uiso  0.012670 H
   H573       1.0     0.977580     0.474390     0.908930    Uiso  0.012670 H
   H574       1.0     0.993350     0.490490     0.924510    Uiso  0.012670 H
   H575       1.0     0.939410     0.341980     0.992700    Uiso  0.012670 H
   H576       1.0     0.945170     0.316240     0.035480    Uiso  0.012670 H
   H577       1.0     0.881860     0.406370     0.020720    Uiso  0.012670 H
   H578       1.0     0.887400     0.381020     0.062890    Uiso  0.012670 H
   Fe69       1.0     0.305770     0.135770     0.592300    Uiso  0.012670 Fe
   Fe70       1.0     0.446520     0.943440     0.719660    Uiso  0.012670 Fe
   C987       1.0     0.680560     0.827600     0.702770    Uiso  0.012670 C
   C988       1.0     0.523040     0.888980     0.737530    Uiso  0.012670 C
   C989       1.0     0.544610     0.873970     0.745970    Uiso  0.012670 C
   C990       1.0     0.399460     0.933210     0.822540    Uiso  0.012670 C
   C991       1.0     0.419370     0.937730     0.775110    Uiso  0.012670 C
   C992       1.0     0.418960     0.939110     0.798330    Uiso  0.012670 C
   C993       1.0     0.438300     0.945420     0.796960    Uiso  0.012670 C
   C994       1.0     0.292740     0.064060     0.601570    Uiso  0.012670 C
   C995       1.0     0.287420     0.090640     0.624990    Uiso  0.012670 C
   C996       1.0     0.285060     0.067820     0.625060    Uiso  0.012670 C
   C997       1.0     0.276780     0.048550     0.648570    Uiso  0.012670 C
   C998       1.0     0.386110     0.087030     0.544840    Uiso  0.012670 C
   C999       1.0     0.361960     0.105960     0.581690    Uiso  0.012670 C
   C1000      1.0     0.386400     0.091300     0.564700    Uiso  0.012670 C
   C1001      1.0     0.409150     0.073190     0.529170    Uiso  0.012670 C
   C1002      1.0     0.457700     0.046900     0.517390    Uiso  0.012670 C
   C1003      1.0     0.433280     0.063250     0.532740    Uiso  0.012670 C
   C1004      1.0     0.410570     0.081490     0.568100    Uiso  0.012670 C
   C1005      1.0     0.433530     0.067780     0.552430    Uiso  0.012670 C
   C1006      1.0     0.477880     0.965750     0.629010    Uiso  0.012670 C
   C1007      1.0     0.487240     0.974800     0.601590    Uiso  0.012670 C
   C1008      1.0     0.350500     0.927760     0.713680    Uiso  0.012670 C
   C1009      1.0     0.393000     0.908340     0.721700    Uiso  0.012670 C
   C1010      1.0     0.376310     0.910280     0.710130    Uiso  0.012670 C
   C1011      1.0     0.335770     0.931110     0.700620    Uiso  0.012670 C
   C1012      1.0     0.328620     0.172040     0.581920    Uiso  0.012670 C
   C1013      1.0     0.346610     0.917010     0.683850    Uiso  0.012670 C
   C1014      1.0     0.386690     0.895620     0.694080    Uiso  0.012670 C
   C1015      1.0     0.372060     0.898890     0.681190    Uiso  0.012670 C
   O579       1.0     0.638760     0.824410     0.747860    Uiso  0.012670 O
   O580       1.0     0.477350     0.916730     0.724750    Uiso  0.012670 O
   O581       1.0     0.586300     0.841990     0.765230    Uiso  0.012670 O
   O582       1.0     0.436800     0.943630     0.753270    Uiso  0.012670 O
   O583       1.0     0.402270     0.889180     0.778240    Uiso  0.012670 O
   O584       1.0     0.296480     0.106590     0.603190    Uiso  0.012670 O
   O585       1.0     0.270540     0.157150     0.603300    Uiso  0.012670 O
   O586       1.0     0.340630     0.116040     0.577230    Uiso  0.012670 O
   O587       1.0     0.363530     0.107950     0.600000    Uiso  0.012670 O
   O588       1.0     0.456640     0.042030     0.500600    Uiso  0.012670 O
   O589       1.0     0.478570     0.037820     0.522290    Uiso  0.012670 O
   O590       1.0     0.458600     0.946210     0.684440    Uiso  0.012670 O
   O591       1.0     0.503960     0.991990     0.547510    Uiso  0.012670 O
   O592       1.0     0.382380     0.918880     0.738890    Uiso  0.012670 O
   O593       1.0     0.417360     0.972540     0.713430    Uiso  0.012670 O
   O594       1.0     0.314920     0.165900     0.577730    Uiso  0.012670 O
   O595       1.0     0.345860     0.092630     0.650570    Uiso  0.012670 O
   H579       1.0     0.672530     0.842710     0.710980    Uiso  0.012670 H
   H580       1.0     0.514850     0.909630     0.734680    Uiso  0.012670 H
   H581       1.0     0.552510     0.883510     0.749270    Uiso  0.012670 H
   H582       1.0     0.384230     0.928260     0.824460    Uiso  0.012670 H
   H583       1.0     0.453660     0.950010     0.778690    Uiso  0.012670 H
   H584       1.0     0.299360     0.078240     0.583020    Uiso  0.012670 H
   H585       1.0     0.270820     0.050500     0.667100    Uiso  0.012670 H
   H586       1.0     0.368010     0.094210     0.541510    Uiso  0.012670 H
   H587       1.0     0.407970     0.070020     0.514430    Uiso  0.012670 H
   H588       1.0     0.411810     0.084330     0.583020    Uiso  0.012670 H
   H589       1.0     0.451510     0.060390     0.556060    Uiso  0.012670 H
   H590       1.0     0.474390     0.977580     0.639100    Uiso  0.012670 H
   H591       1.0     0.490490     0.993350     0.591650    Uiso  0.012670 H
   H592       1.0     0.341980     0.939410     0.725920    Uiso  0.012670 H
   H593       1.0     0.316240     0.945170     0.703100    Uiso  0.012670 H
   H594       1.0     0.406370     0.881860     0.691050    Uiso  0.012670 H
   H595       1.0     0.381020     0.887400     0.668690    Uiso  0.012670 H
   Fe71       1.0     0.592300     0.966160     0.305770    Uiso  0.012670 Fe
   Fe72       1.0     0.719660     0.890370     0.446520    Uiso  0.012670 Fe
   C1016      1.0     0.702770     0.789080     0.680560    Uiso  0.012670 C
   C1017      1.0     0.737530     0.850450     0.523040    Uiso  0.012670 C
   C1018      1.0     0.745970     0.835450     0.544610    Uiso  0.012670 C
   C1019      1.0     0.822540     0.844790     0.399460    Uiso  0.012670 C
   C1020      1.0     0.775110     0.867800     0.419370    Uiso  0.012670 C
   C1021      1.0     0.798330     0.843590     0.418960    Uiso  0.012670 C
   C1022      1.0     0.796960     0.819320     0.438300    Uiso  0.012670 C
   C1023      1.0     0.601570     0.041630     0.292740    Uiso  0.012670 C
   C1024      1.0     0.624990     0.996950     0.287420    Uiso  0.012670 C
   C1025      1.0     0.625060     0.022050     0.285060    Uiso  0.012670 C
   C1026      1.0     0.648570     0.026100     0.276780    Uiso  0.012670 C
   C1027      1.0     0.544840     0.982010     0.386110    Uiso  0.012670 C
   C1028      1.0     0.581690     0.950390     0.361960    Uiso  0.012670 C
   C1029      1.0     0.564700     0.957600     0.386400    Uiso  0.012670 C
   C1030      1.0     0.529170     0.988480     0.409150    Uiso  0.012670 C
   C1031      1.0     0.517390     0.978010     0.457700    Uiso  0.012670 C
   C1032      1.0     0.532740     0.970730     0.433280    Uiso  0.012670 C
   C1033      1.0     0.568100     0.939840     0.410570    Uiso  0.012670 C
   C1034      1.0     0.552430     0.946260     0.433530    Uiso  0.012670 C
   C1035      1.0     0.629010     0.927360     0.477880    Uiso  0.012670 C
   C1036      1.0     0.601590     0.936370     0.487240    Uiso  0.012670 C
   C1037      1.0     0.713680     0.008060     0.350500    Uiso  0.012670 C
   C1038      1.0     0.721700     0.976960     0.393000    Uiso  0.012670 C
   C1039      1.0     0.710130     0.003280     0.376310    Uiso  0.012670 C
   C1040      1.0     0.700620     0.032500     0.335770    Uiso  0.012670 C
   C1041      1.0     0.581920     0.917430     0.328620    Uiso  0.012670 C
   C1042      1.0     0.683850     0.052530     0.346610    Uiso  0.012670 C
   C1043      1.0     0.694080     0.023620     0.386690    Uiso  0.012670 C
   C1044      1.0     0.681190     0.047870     0.372060    Uiso  0.012670 C
   O596       1.0     0.747860     0.788970     0.638760    Uiso  0.012670 O
   O597       1.0     0.724750     0.881170     0.477350    Uiso  0.012670 O
   O598       1.0     0.765230     0.806480     0.586300    Uiso  0.012670 O
   O599       1.0     0.753270     0.866300     0.436800    Uiso  0.012670 O
   O600       1.0     0.778240     0.930310     0.402270    Uiso  0.012670 O
   O601       1.0     0.603190     0.993740     0.296480    Uiso  0.012670 O
   O602       1.0     0.603300     0.969020     0.270540    Uiso  0.012670 O
   O603       1.0     0.577230     0.966100     0.340630    Uiso  0.012670 O
   O604       1.0     0.600000     0.928510     0.363530    Uiso  0.012670 O
   O605       1.0     0.500600     0.000730     0.456640    Uiso  0.012670 O
   O606       1.0     0.522290     0.961330     0.478570    Uiso  0.012670 O
   O607       1.0     0.684440     0.910740     0.458600    Uiso  0.012670 O
   O608       1.0     0.547510     0.956540     0.503960    Uiso  0.012670 O
   O609       1.0     0.738890     0.959840     0.382380    Uiso  0.012670 O
   O610       1.0     0.713430     0.896680     0.417360    Uiso  0.012670 O
   O611       1.0     0.577730     0.941450     0.314920    Uiso  0.012670 O
   O612       1.0     0.650570     0.910930     0.345860    Uiso  0.012670 O
   H596       1.0     0.710980     0.773780     0.672530    Uiso  0.012670 H
   H597       1.0     0.734680     0.840830     0.514850    Uiso  0.012670 H
   H598       1.0     0.749270     0.814710     0.552510    Uiso  0.012670 H
   H599       1.0     0.824460     0.863050     0.384230    Uiso  0.012670 H
   H600       1.0     0.778690     0.817640     0.453660    Uiso  0.012670 H
   H601       1.0     0.583020     0.039390     0.299360    Uiso  0.012670 H
   H602       1.0     0.667100     0.011580     0.270820    Uiso  0.012670 H
   H603       1.0     0.541510     0.996260     0.368010    Uiso  0.012670 H
   H604       1.0     0.514430     0.007590     0.407970    Uiso  0.012670 H
   H605       1.0     0.583020     0.920830     0.411810    Uiso  0.012670 H
   H606       1.0     0.556060     0.932030     0.451510    Uiso  0.012670 H
   H607       1.0     0.639100     0.908930     0.474390    Uiso  0.012670 H
   H608       1.0     0.591650     0.924510     0.490490    Uiso  0.012670 H
   H609       1.0     0.725920     0.992700     0.341980    Uiso  0.012670 H
   H610       1.0     0.703100     0.035480     0.316240    Uiso  0.012670 H
   H611       1.0     0.691050     0.020720     0.406370    Uiso  0.012670 H
   H612       1.0     0.668690     0.062890     0.381020    Uiso  0.012670 H
   Fe73       1.0     0.114230     0.283840     0.944230    Uiso  0.012670 Fe
   Fe74       1.0     0.306560     0.359630     0.803480    Uiso  0.012670 Fe
   C1045      1.0     0.422400     0.460920     0.569440    Uiso  0.012670 C
   C1046      1.0     0.361020     0.399550     0.726960    Uiso  0.012670 C
   C1047      1.0     0.376030     0.414550     0.705390    Uiso  0.012670 C
   C1048      1.0     0.316790     0.405210     0.850540    Uiso  0.012670 C
   C1049      1.0     0.312270     0.382200     0.830630    Uiso  0.012670 C
   C1050      1.0     0.310890     0.406410     0.831040    Uiso  0.012670 C
   C1051      1.0     0.304580     0.430680     0.811700    Uiso  0.012670 C
   C1052      1.0     0.185940     0.208370     0.957260    Uiso  0.012670 C
   C1053      1.0     0.159360     0.253050     0.962580    Uiso  0.012670 C
   C1054      1.0     0.182180     0.227950     0.964940    Uiso  0.012670 C
   C1055      1.0     0.201450     0.223900     0.973220    Uiso  0.012670 C
   C1056      1.0     0.162970     0.267990     0.863890    Uiso  0.012670 C
   C1057      1.0     0.144040     0.299610     0.888040    Uiso  0.012670 C
   C1058      1.0     0.158700     0.292400     0.863600    Uiso  0.012670 C
   C1059      1.0     0.176810     0.261520     0.840850    Uiso  0.012670 C
   C1060      1.0     0.203100     0.271990     0.792300    Uiso  0.012670 C
   C1061      1.0     0.186750     0.279270     0.816720    Uiso  0.012670 C
   C1062      1.0     0.168510     0.310160     0.839430    Uiso  0.012670 C
   C1063      1.0     0.182220     0.303740     0.816470    Uiso  0.012670 C
   C1064      1.0     0.284250     0.322640     0.772120    Uiso  0.012670 C
   C1065      1.0     0.275200     0.313630     0.762760    Uiso  0.012670 C
   C1066      1.0     0.322240     0.241940     0.899500    Uiso  0.012670 C
   C1067      1.0     0.341660     0.273040     0.857000    Uiso  0.012670 C
   C1068      1.0     0.339720     0.246720     0.873690    Uiso  0.012670 C
   C1069      1.0     0.318890     0.217500     0.914230    Uiso  0.012670 C
   C1070      1.0     0.077960     0.332570     0.921380    Uiso  0.012670 C
   C1071      1.0     0.332990     0.197470     0.903390    Uiso  0.012670 C
   C1072      1.0     0.354380     0.226380     0.863310    Uiso  0.012670 C
   C1073      1.0     0.351110     0.202130     0.877940    Uiso  0.012670 C
   O613       1.0     0.425590     0.461030     0.611240    Uiso  0.012670 O
   O614       1.0     0.333270     0.368830     0.772650    Uiso  0.012670 O
   O615       1.0     0.408010     0.443520     0.663700    Uiso  0.012670 O
   O616       1.0     0.306370     0.383700     0.813200    Uiso  0.012670 O
   O617       1.0     0.360820     0.319690     0.847730    Uiso  0.012670 O
   O618       1.0     0.143410     0.256260     0.953520    Uiso  0.012670 O
   O619       1.0     0.092850     0.280980     0.979460    Uiso  0.012670 O
   O620       1.0     0.133960     0.283900     0.909370    Uiso  0.012670 O
   O621       1.0     0.142050     0.321490     0.886470    Uiso  0.012670 O
   O622       1.0     0.207970     0.249270     0.793360    Uiso  0.012670 O
   O623       1.0     0.212180     0.288670     0.771430    Uiso  0.012670 O
   O624       1.0     0.303790     0.339260     0.791400    Uiso  0.012670 O
   O625       1.0     0.258010     0.293460     0.746040    Uiso  0.012670 O
   O626       1.0     0.331120     0.290160     0.867620    Uiso  0.012670 O
   O627       1.0     0.277460     0.353320     0.832640    Uiso  0.012670 O
   O628       1.0     0.084100     0.308550     0.935080    Uiso  0.012670 O
   O629       1.0     0.157370     0.339070     0.904140    Uiso  0.012670 O
   H613       1.0     0.407290     0.476220     0.577470    Uiso  0.012670 H
   H614       1.0     0.340370     0.409170     0.735150    Uiso  0.012670 H
   H615       1.0     0.366490     0.435290     0.697490    Uiso  0.012670 H
   H616       1.0     0.321740     0.386950     0.865770    Uiso  0.012670 H
   H617       1.0     0.299990     0.432360     0.796340    Uiso  0.012670 H
   H618       1.0     0.171760     0.210610     0.950640    Uiso  0.012670 H
   H619       1.0     0.199500     0.238420     0.979180    Uiso  0.012670 H
   H620       1.0     0.155790     0.253740     0.881990    Uiso  0.012670 H
   H621       1.0     0.179980     0.242410     0.842030    Uiso  0.012670 H
   H622       1.0     0.165670     0.329170     0.838190    Uiso  0.012670 H
   H623       1.0     0.189610     0.317970     0.798490    Uiso  0.012670 H
   H624       1.0     0.272420     0.341070     0.775610    Uiso  0.012670 H
   H625       1.0     0.256650     0.325490     0.759510    Uiso  0.012670 H
   H626       1.0     0.310590     0.257300     0.908020    Uiso  0.012670 H
   H627       1.0     0.304830     0.214520     0.933760    Uiso  0.012670 H
   H628       1.0     0.368140     0.229280     0.843630    Uiso  0.012670 H
   H629       1.0     0.362600     0.187110     0.868980    Uiso  0.012670 H
   Fe75       1.0     0.283840     0.114230     0.657700    Uiso  0.012670 Fe
   Fe76       1.0     0.359630     0.306560     0.530340    Uiso  0.012670 Fe
   C1074      1.0     0.460920     0.422400     0.547230    Uiso  0.012670 C
   C1075      1.0     0.399550     0.361020     0.512470    Uiso  0.012670 C
   C1076      1.0     0.414550     0.376030     0.504030    Uiso  0.012670 C
   C1077      1.0     0.405210     0.316790     0.427460    Uiso  0.012670 C
   C1078      1.0     0.382200     0.312270     0.474890    Uiso  0.012670 C
   C1079      1.0     0.406410     0.310890     0.451670    Uiso  0.012670 C
   C1080      1.0     0.430680     0.304580     0.453040    Uiso  0.012670 C
   C1081      1.0     0.208370     0.185940     0.648430    Uiso  0.012670 C
   C1082      1.0     0.253050     0.159360     0.625010    Uiso  0.012670 C
   C1083      1.0     0.227950     0.182180     0.624940    Uiso  0.012670 C
   C1084      1.0     0.223900     0.201450     0.601430    Uiso  0.012670 C
   C1085      1.0     0.267990     0.162970     0.705160    Uiso  0.012670 C
   C1086      1.0     0.299610     0.144040     0.668310    Uiso  0.012670 C
   C1087      1.0     0.292400     0.158700     0.685300    Uiso  0.012670 C
   C1088      1.0     0.261520     0.176810     0.720830    Uiso  0.012670 C
   C1089      1.0     0.271990     0.203100     0.732610    Uiso  0.012670 C
   C1090      1.0     0.279270     0.186750     0.717260    Uiso  0.012670 C
   C1091      1.0     0.310160     0.168510     0.681900    Uiso  0.012670 C
   C1092      1.0     0.303740     0.182220     0.697570    Uiso  0.012670 C
   C1093      1.0     0.322640     0.284250     0.620990    Uiso  0.012670 C
   C1094      1.0     0.313630     0.275200     0.648410    Uiso  0.012670 C
   C1095      1.0     0.241940     0.322240     0.536320    Uiso  0.012670 C
   C1096      1.0     0.273040     0.341660     0.528300    Uiso  0.012670 C
   C1097      1.0     0.246720     0.339720     0.539870    Uiso  0.012670 C
   C1098      1.0     0.217500     0.318890     0.549380    Uiso  0.012670 C
   C1099      1.0     0.332570     0.077960     0.668080    Uiso  0.012670 C
   C1100      1.0     0.197470     0.332990     0.566150    Uiso  0.012670 C
   C1101      1.0     0.226380     0.354380     0.555920    Uiso  0.012670 C
   C1102      1.0     0.202130     0.351110     0.568810    Uiso  0.012670 C
   O630       1.0     0.461030     0.425590     0.502140    Uiso  0.012670 O
   O631       1.0     0.368830     0.333270     0.525250    Uiso  0.012670 O
   O632       1.0     0.443520     0.408010     0.484770    Uiso  0.012670 O
   O633       1.0     0.383700     0.306370     0.496730    Uiso  0.012670 O
   O634       1.0     0.319690     0.360820     0.471760    Uiso  0.012670 O
   O635       1.0     0.256260     0.143410     0.646810    Uiso  0.012670 O
   O636       1.0     0.280980     0.092850     0.646700    Uiso  0.012670 O
   O637       1.0     0.283900     0.133960     0.672770    Uiso  0.012670 O
   O638       1.0     0.321490     0.142050     0.650000    Uiso  0.012670 O
   O639       1.0     0.249270     0.207970     0.749400    Uiso  0.012670 O
   O640       1.0     0.288670     0.212180     0.727710    Uiso  0.012670 O
   O641       1.0     0.339260     0.303790     0.565560    Uiso  0.012670 O
   O642       1.0     0.293460     0.258010     0.702490    Uiso  0.012670 O
   O643       1.0     0.290160     0.331120     0.511110    Uiso  0.012670 O
   O644       1.0     0.353320     0.277460     0.536570    Uiso  0.012670 O
   O645       1.0     0.308550     0.084100     0.672270    Uiso  0.012670 O
   O646       1.0     0.339070     0.157370     0.599430    Uiso  0.012670 O
   H630       1.0     0.476220     0.407290     0.539020    Uiso  0.012670 H
   H631       1.0     0.409170     0.340370     0.515320    Uiso  0.012670 H
   H632       1.0     0.435290     0.366490     0.500730    Uiso  0.012670 H
   H633       1.0     0.386950     0.321740     0.425540    Uiso  0.012670 H
   H634       1.0     0.432360     0.299990     0.471310    Uiso  0.012670 H
   H635       1.0     0.210610     0.171760     0.666980    Uiso  0.012670 H
   H636       1.0     0.238420     0.199500     0.582900    Uiso  0.012670 H
   H637       1.0     0.253740     0.155790     0.708490    Uiso  0.012670 H
   H638       1.0     0.242410     0.179980     0.735570    Uiso  0.012670 H
   H639       1.0     0.329170     0.165670     0.666980    Uiso  0.012670 H
   H640       1.0     0.317970     0.189610     0.693940    Uiso  0.012670 H
   H641       1.0     0.341070     0.272420     0.610900    Uiso  0.012670 H
   H642       1.0     0.325490     0.256650     0.658350    Uiso  0.012670 H
   H643       1.0     0.257300     0.310590     0.524080    Uiso  0.012670 H
   H644       1.0     0.214520     0.304830     0.546900    Uiso  0.012670 H
   H645       1.0     0.229280     0.368140     0.558950    Uiso  0.012670 H
   H646       1.0     0.187110     0.362600     0.581310    Uiso  0.012670 H
   Fe77       1.0     0.657700     0.944230     0.283840    Uiso  0.012670 Fe
   Fe78       1.0     0.530340     0.803480     0.359630    Uiso  0.012670 Fe
   C1103      1.0     0.547230     0.569440     0.460920    Uiso  0.012670 C
   C1104      1.0     0.512470     0.726960     0.399550    Uiso  0.012670 C
   C1105      1.0     0.504030     0.705390     0.414550    Uiso  0.012670 C
   C1106      1.0     0.427460     0.850540     0.405210    Uiso  0.012670 C
   C1107      1.0     0.474890     0.830630     0.382200    Uiso  0.012670 C
   C1108      1.0     0.451670     0.831040     0.406410    Uiso  0.012670 C
   C1109      1.0     0.453040     0.811700     0.430680    Uiso  0.012670 C
   C1110      1.0     0.648430     0.957260     0.208370    Uiso  0.012670 C
   C1111      1.0     0.625010     0.962580     0.253050    Uiso  0.012670 C
   C1112      1.0     0.624940     0.964940     0.227950    Uiso  0.012670 C
   C1113      1.0     0.601430     0.973220     0.223900    Uiso  0.012670 C
   C1114      1.0     0.705160     0.863890     0.267990    Uiso  0.012670 C
   C1115      1.0     0.668310     0.888040     0.299610    Uiso  0.012670 C
   C1116      1.0     0.685300     0.863600     0.292400    Uiso  0.012670 C
   C1117      1.0     0.720830     0.840850     0.261520    Uiso  0.012670 C
   C1118      1.0     0.732610     0.792300     0.271990    Uiso  0.012670 C
   C1119      1.0     0.717260     0.816720     0.279270    Uiso  0.012670 C
   C1120      1.0     0.681900     0.839430     0.310160    Uiso  0.012670 C
   C1121      1.0     0.697570     0.816470     0.303740    Uiso  0.012670 C
   C1122      1.0     0.620990     0.772120     0.322640    Uiso  0.012670 C
   C1123      1.0     0.648410     0.762760     0.313630    Uiso  0.012670 C
   C1124      1.0     0.536320     0.899500     0.241940    Uiso  0.012670 C
   C1125      1.0     0.528300     0.857000     0.273040    Uiso  0.012670 C
   C1126      1.0     0.539870     0.873690     0.246720    Uiso  0.012670 C
   C1127      1.0     0.549380     0.914230     0.217500    Uiso  0.012670 C
   C1128      1.0     0.668080     0.921380     0.332570    Uiso  0.012670 C
   C1129      1.0     0.566150     0.903390     0.197470    Uiso  0.012670 C
   C1130      1.0     0.555920     0.863310     0.226380    Uiso  0.012670 C
   C1131      1.0     0.568810     0.877940     0.202130    Uiso  0.012670 C
   O647       1.0     0.502140     0.611240     0.461030    Uiso  0.012670 O
   O648       1.0     0.525250     0.772650     0.368830    Uiso  0.012670 O
   O649       1.0     0.484770     0.663700     0.443520    Uiso  0.012670 O
   O650       1.0     0.496730     0.813200     0.383700    Uiso  0.012670 O
   O651       1.0     0.471760     0.847730     0.319690    Uiso  0.012670 O
   O652       1.0     0.646810     0.953520     0.256260    Uiso  0.012670 O
   O653       1.0     0.646700     0.979460     0.280980    Uiso  0.012670 O
   O654       1.0     0.672770     0.909370     0.283900    Uiso  0.012670 O
   O655       1.0     0.650000     0.886470     0.321490    Uiso  0.012670 O
   O656       1.0     0.749400     0.793360     0.249270    Uiso  0.012670 O
   O657       1.0     0.727710     0.771430     0.288670    Uiso  0.012670 O
   O658       1.0     0.565560     0.791400     0.339260    Uiso  0.012670 O
   O659       1.0     0.702490     0.746040     0.293460    Uiso  0.012670 O
   O660       1.0     0.511110     0.867620     0.290160    Uiso  0.012670 O
   O661       1.0     0.536570     0.832640     0.353320    Uiso  0.012670 O
   O662       1.0     0.672270     0.935080     0.308550    Uiso  0.012670 O
   O663       1.0     0.599430     0.904140     0.339070    Uiso  0.012670 O
   H647       1.0     0.539020     0.577470     0.476220    Uiso  0.012670 H
   H648       1.0     0.515320     0.735150     0.409170    Uiso  0.012670 H
   H649       1.0     0.500730     0.697490     0.435290    Uiso  0.012670 H
   H650       1.0     0.425540     0.865770     0.386950    Uiso  0.012670 H
   H651       1.0     0.471310     0.796340     0.432360    Uiso  0.012670 H
   H652       1.0     0.666980     0.950640     0.210610    Uiso  0.012670 H
   H653       1.0     0.582900     0.979180     0.238420    Uiso  0.012670 H
   H654       1.0     0.708490     0.881990     0.253740    Uiso  0.012670 H
   H655       1.0     0.735570     0.842030     0.242410    Uiso  0.012670 H
   H656       1.0     0.666980     0.838190     0.329170    Uiso  0.012670 H
   H657       1.0     0.693940     0.798490     0.317970    Uiso  0.012670 H
   H658       1.0     0.610900     0.775610     0.341070    Uiso  0.012670 H
   H659       1.0     0.658350     0.759510     0.325490    Uiso  0.012670 H
   H660       1.0     0.524080     0.908020     0.257300    Uiso  0.012670 H
   H661       1.0     0.546900     0.933760     0.214520    Uiso  0.012670 H
   H662       1.0     0.558950     0.843630     0.229280    Uiso  0.012670 H
   H663       1.0     0.581310     0.868980     0.187110    Uiso  0.012670 H
   Fe79       1.0     0.944230     0.657700     0.114230    Uiso  0.012670 Fe
   Fe80       1.0     0.803480     0.530340     0.306560    Uiso  0.012670 Fe
   C1132      1.0     0.569440     0.547230     0.422400    Uiso  0.012670 C
   C1133      1.0     0.726960     0.512470     0.361020    Uiso  0.012670 C
   C1134      1.0     0.705390     0.504030     0.376030    Uiso  0.012670 C
   C1135      1.0     0.850540     0.427460     0.316790    Uiso  0.012670 C
   C1136      1.0     0.830630     0.474890     0.312270    Uiso  0.012670 C
   C1137      1.0     0.831040     0.451670     0.310890    Uiso  0.012670 C
   C1138      1.0     0.811700     0.453040     0.304580    Uiso  0.012670 C
   C1139      1.0     0.957260     0.648430     0.185940    Uiso  0.012670 C
   C1140      1.0     0.962580     0.625010     0.159360    Uiso  0.012670 C
   C1141      1.0     0.964940     0.624940     0.182180    Uiso  0.012670 C
   C1142      1.0     0.973220     0.601430     0.201450    Uiso  0.012670 C
   C1143      1.0     0.863890     0.705160     0.162970    Uiso  0.012670 C
   C1144      1.0     0.888040     0.668310     0.144040    Uiso  0.012670 C
   C1145      1.0     0.863600     0.685300     0.158700    Uiso  0.012670 C
   C1146      1.0     0.840850     0.720830     0.176810    Uiso  0.012670 C
   C1147      1.0     0.792300     0.732610     0.203100    Uiso  0.012670 C
   C1148      1.0     0.816720     0.717260     0.186750    Uiso  0.012670 C
   C1149      1.0     0.839430     0.681900     0.168510    Uiso  0.012670 C
   C1150      1.0     0.816470     0.697570     0.182220    Uiso  0.012670 C
   C1151      1.0     0.772120     0.620990     0.284250    Uiso  0.012670 C
   C1152      1.0     0.762760     0.648410     0.275200    Uiso  0.012670 C
   C1153      1.0     0.899500     0.536320     0.322240    Uiso  0.012670 C
   C1154      1.0     0.857000     0.528300     0.341660    Uiso  0.012670 C
   C1155      1.0     0.873690     0.539870     0.339720    Uiso  0.012670 C
   C1156      1.0     0.914230     0.549380     0.318890    Uiso  0.012670 C
   C1157      1.0     0.921380     0.668080     0.077960    Uiso  0.012670 C
   C1158      1.0     0.903390     0.566150     0.332990    Uiso  0.012670 C
   C1159      1.0     0.863310     0.555920     0.354380    Uiso  0.012670 C
   C1160      1.0     0.877940     0.568810     0.351110    Uiso  0.012670 C
   O664       1.0     0.611240     0.502140     0.425590    Uiso  0.012670 O
   O665       1.0     0.772650     0.525250     0.333270    Uiso  0.012670 O
   O666       1.0     0.663700     0.484770     0.408010    Uiso  0.012670 O
   O667       1.0     0.813200     0.496730     0.306370    Uiso  0.012670 O
   O668       1.0     0.847730     0.471760     0.360820    Uiso  0.012670 O
   O669       1.0     0.953520     0.646810     0.143410    Uiso  0.012670 O
   O670       1.0     0.979460     0.646700     0.092850    Uiso  0.012670 O
   O671       1.0     0.909370     0.672770     0.133960    Uiso  0.012670 O
   O672       1.0     0.886470     0.650000     0.142050    Uiso  0.012670 O
   O673       1.0     0.793360     0.749400     0.207970    Uiso  0.012670 O
   O674       1.0     0.771430     0.727710     0.212180    Uiso  0.012670 O
   O675       1.0     0.791400     0.565560     0.303790    Uiso  0.012670 O
   O676       1.0     0.746040     0.702490     0.258010    Uiso  0.012670 O
   O677       1.0     0.867620     0.511110     0.331120    Uiso  0.012670 O
   O678       1.0     0.832640     0.536570     0.277460    Uiso  0.012670 O
   O679       1.0     0.935080     0.672270     0.084100    Uiso  0.012670 O
   O680       1.0     0.904140     0.599430     0.157370    Uiso  0.012670 O
   H664       1.0     0.577470     0.539020     0.407290    Uiso  0.012670 H
   H665       1.0     0.735150     0.515320     0.340370    Uiso  0.012670 H
   H666       1.0     0.697490     0.500730     0.366490    Uiso  0.012670 H
   H667       1.0     0.865770     0.425540     0.321740    Uiso  0.012670 H
   H668       1.0     0.796340     0.471310     0.299990    Uiso  0.012670 H
   H669       1.0     0.950640     0.666980     0.171760    Uiso  0.012670 H
   H670       1.0     0.979180     0.582900     0.199500    Uiso  0.012670 H
   H671       1.0     0.881990     0.708490     0.155790    Uiso  0.012670 H
   H672       1.0     0.842030     0.735570     0.179980    Uiso  0.012670 H
   H673       1.0     0.838190     0.666980     0.165670    Uiso  0.012670 H
   H674       1.0     0.798490     0.693940     0.189610    Uiso  0.012670 H
   H675       1.0     0.775610     0.610900     0.272420    Uiso  0.012670 H
   H676       1.0     0.759510     0.658350     0.256650    Uiso  0.012670 H
   H677       1.0     0.908020     0.524080     0.310590    Uiso  0.012670 H
   H678       1.0     0.933760     0.546900     0.304830    Uiso  0.012670 H
   H679       1.0     0.843630     0.558950     0.368140    Uiso  0.012670 H
   H680       1.0     0.868980     0.581310     0.362600    Uiso  0.012670 H
   Fe81       1.0     0.657700     0.114230     0.944230    Uiso  0.012670 Fe
   Fe82       1.0     0.530340     0.306560     0.803480    Uiso  0.012670 Fe
   C1161      1.0     0.547230     0.422400     0.569440    Uiso  0.012670 C
   C1162      1.0     0.512470     0.361020     0.726960    Uiso  0.012670 C
   C1163      1.0     0.504030     0.376030     0.705390    Uiso  0.012670 C
   C1164      1.0     0.427460     0.316790     0.850540    Uiso  0.012670 C
   C1165      1.0     0.474890     0.312270     0.830630    Uiso  0.012670 C
   C1166      1.0     0.451670     0.310890     0.831040    Uiso  0.012670 C
   C1167      1.0     0.453040     0.304580     0.811700    Uiso  0.012670 C
   C1168      1.0     0.648430     0.185940     0.957260    Uiso  0.012670 C
   C1169      1.0     0.625010     0.159360     0.962580    Uiso  0.012670 C
   C1170      1.0     0.624940     0.182180     0.964940    Uiso  0.012670 C
   C1171      1.0     0.601430     0.201450     0.973220    Uiso  0.012670 C
   C1172      1.0     0.705160     0.162970     0.863890    Uiso  0.012670 C
   C1173      1.0     0.668310     0.144040     0.888040    Uiso  0.012670 C
   C1174      1.0     0.685300     0.158700     0.863600    Uiso  0.012670 C
   C1175      1.0     0.720830     0.176810     0.840850    Uiso  0.012670 C
   C1176      1.0     0.732610     0.203100     0.792300    Uiso  0.012670 C
   C1177      1.0     0.717260     0.186750     0.816720    Uiso  0.012670 C
   C1178      1.0     0.681900     0.168510     0.839430    Uiso  0.012670 C
   C1179      1.0     0.697570     0.182220     0.816470    Uiso  0.012670 C
   C1180      1.0     0.620990     0.284250     0.772120    Uiso  0.012670 C
   C1181      1.0     0.648410     0.275200     0.762760    Uiso  0.012670 C
   C1182      1.0     0.536320     0.322240     0.899500    Uiso  0.012670 C
   C1183      1.0     0.528300     0.341660     0.857000    Uiso  0.012670 C
   C1184      1.0     0.539870     0.339720     0.873690    Uiso  0.012670 C
   C1185      1.0     0.549380     0.318890     0.914230    Uiso  0.012670 C
   C1186      1.0     0.668080     0.077960     0.921380    Uiso  0.012670 C
   C1187      1.0     0.566150     0.332990     0.903390    Uiso  0.012670 C
   C1188      1.0     0.555920     0.354380     0.863310    Uiso  0.012670 C
   C1189      1.0     0.568810     0.351110     0.877940    Uiso  0.012670 C
   O681       1.0     0.502140     0.425590     0.611240    Uiso  0.012670 O
   O682       1.0     0.525250     0.333270     0.772650    Uiso  0.012670 O
   O683       1.0     0.484770     0.408010     0.663700    Uiso  0.012670 O
   O684       1.0     0.496730     0.306370     0.813200    Uiso  0.012670 O
   O685       1.0     0.471760     0.360820     0.847730    Uiso  0.012670 O
   O686       1.0     0.646810     0.143410     0.953520    Uiso  0.012670 O
   O687       1.0     0.646700     0.092850     0.979460    Uiso  0.012670 O
   O688       1.0     0.672770     0.133960     0.909370    Uiso  0.012670 O
   O689       1.0     0.650000     0.142050     0.886470    Uiso  0.012670 O
   O690       1.0     0.749400     0.207970     0.793360    Uiso  0.012670 O
   O691       1.0     0.727710     0.212180     0.771430    Uiso  0.012670 O
   O692       1.0     0.565560     0.303790     0.791400    Uiso  0.012670 O
   O693       1.0     0.702490     0.258010     0.746040    Uiso  0.012670 O
   O694       1.0     0.511110     0.331120     0.867620    Uiso  0.012670 O
   O695       1.0     0.536570     0.277460     0.832640    Uiso  0.012670 O
   O696       1.0     0.672270     0.084100     0.935080    Uiso  0.012670 O
   O697       1.0     0.599430     0.157370     0.904140    Uiso  0.012670 O
   H681       1.0     0.539020     0.407290     0.577470    Uiso  0.012670 H
   H682       1.0     0.515320     0.340370     0.735150    Uiso  0.012670 H
   H683       1.0     0.500730     0.366490     0.697490    Uiso  0.012670 H
   H684       1.0     0.425540     0.321740     0.865770    Uiso  0.012670 H
   H685       1.0     0.471310     0.299990     0.796340    Uiso  0.012670 H
   H686       1.0     0.666980     0.171760     0.950640    Uiso  0.012670 H
   H687       1.0     0.582900     0.199500     0.979180    Uiso  0.012670 H
   H688       1.0     0.708490     0.155790     0.881990    Uiso  0.012670 H
   H689       1.0     0.735570     0.179980     0.842030    Uiso  0.012670 H
   H690       1.0     0.666980     0.165670     0.838190    Uiso  0.012670 H
   H691       1.0     0.693940     0.189610     0.798490    Uiso  0.012670 H
   H692       1.0     0.610900     0.272420     0.775610    Uiso  0.012670 H
   H693       1.0     0.658350     0.256650     0.759510    Uiso  0.012670 H
   H694       1.0     0.524080     0.310590     0.908020    Uiso  0.012670 H
   H695       1.0     0.546900     0.304830     0.933760    Uiso  0.012670 H
   H696       1.0     0.558950     0.368140     0.843630    Uiso  0.012670 H
   H697       1.0     0.581310     0.362600     0.868980    Uiso  0.012670 H
   Fe83       1.0     0.944230     0.283840     0.657700    Uiso  0.012670 Fe
   Fe84       1.0     0.803480     0.359630     0.530340    Uiso  0.012670 Fe
   C1190      1.0     0.569440     0.460920     0.547230    Uiso  0.012670 C
   C1191      1.0     0.726960     0.399550     0.512470    Uiso  0.012670 C
   C1192      1.0     0.705390     0.414550     0.504030    Uiso  0.012670 C
   C1193      1.0     0.850540     0.405210     0.427460    Uiso  0.012670 C
   C1194      1.0     0.830630     0.382200     0.474890    Uiso  0.012670 C
   C1195      1.0     0.831040     0.406410     0.451670    Uiso  0.012670 C
   C1196      1.0     0.811700     0.430680     0.453040    Uiso  0.012670 C
   C1197      1.0     0.957260     0.208370     0.648430    Uiso  0.012670 C
   C1198      1.0     0.962580     0.253050     0.625010    Uiso  0.012670 C
   C1199      1.0     0.964940     0.227950     0.624940    Uiso  0.012670 C
   C1200      1.0     0.973220     0.223900     0.601430    Uiso  0.012670 C
   C1201      1.0     0.863890     0.267990     0.705160    Uiso  0.012670 C
   C1202      1.0     0.888040     0.299610     0.668310    Uiso  0.012670 C
   C1203      1.0     0.863600     0.292400     0.685300    Uiso  0.012670 C
   C1204      1.0     0.840850     0.261520     0.720830    Uiso  0.012670 C
   C1205      1.0     0.792300     0.271990     0.732610    Uiso  0.012670 C
   C1206      1.0     0.816720     0.279270     0.717260    Uiso  0.012670 C
   C1207      1.0     0.839430     0.310160     0.681900    Uiso  0.012670 C
   C1208      1.0     0.816470     0.303740     0.697570    Uiso  0.012670 C
   C1209      1.0     0.772120     0.322640     0.620990    Uiso  0.012670 C
   C1210      1.0     0.762760     0.313630     0.648410    Uiso  0.012670 C
   C1211      1.0     0.899500     0.241940     0.536320    Uiso  0.012670 C
   C1212      1.0     0.857000     0.273040     0.528300    Uiso  0.012670 C
   C1213      1.0     0.873690     0.246720     0.539870    Uiso  0.012670 C
   C1214      1.0     0.914230     0.217500     0.549380    Uiso  0.012670 C
   C1215      1.0     0.921380     0.332570     0.668080    Uiso  0.012670 C
   C1216      1.0     0.903390     0.197470     0.566150    Uiso  0.012670 C
   C1217      1.0     0.863310     0.226380     0.555920    Uiso  0.012670 C
   C1218      1.0     0.877940     0.202130     0.568810    Uiso  0.012670 C
   O698       1.0     0.611240     0.461030     0.502140    Uiso  0.012670 O
   O699       1.0     0.772650     0.368830     0.525250    Uiso  0.012670 O
   O700       1.0     0.663700     0.443520     0.484770    Uiso  0.012670 O
   O701       1.0     0.813200     0.383700     0.496730    Uiso  0.012670 O
   O702       1.0     0.847730     0.319690     0.471760    Uiso  0.012670 O
   O703       1.0     0.953520     0.256260     0.646810    Uiso  0.012670 O
   O704       1.0     0.979460     0.280980     0.646700    Uiso  0.012670 O
   O705       1.0     0.909370     0.283900     0.672770    Uiso  0.012670 O
   O706       1.0     0.886470     0.321490     0.650000    Uiso  0.012670 O
   O707       1.0     0.793360     0.249270     0.749400    Uiso  0.012670 O
   O708       1.0     0.771430     0.288670     0.727710    Uiso  0.012670 O
   O709       1.0     0.791400     0.339260     0.565560    Uiso  0.012670 O
   O710       1.0     0.746040     0.293460     0.702490    Uiso  0.012670 O
   O711       1.0     0.867620     0.290160     0.511110    Uiso  0.012670 O
   O712       1.0     0.832640     0.353320     0.536570    Uiso  0.012670 O
   O713       1.0     0.935080     0.308550     0.672270    Uiso  0.012670 O
   O714       1.0     0.904140     0.339070     0.599430    Uiso  0.012670 O
   H698       1.0     0.577470     0.476220     0.539020    Uiso  0.012670 H
   H699       1.0     0.735150     0.409170     0.515320    Uiso  0.012670 H
   H700       1.0     0.697490     0.435290     0.500730    Uiso  0.012670 H
   H701       1.0     0.865770     0.386950     0.425540    Uiso  0.012670 H
   H702       1.0     0.796340     0.432360     0.471310    Uiso  0.012670 H
   H703       1.0     0.950640     0.210610     0.666980    Uiso  0.012670 H
   H704       1.0     0.979180     0.238420     0.582900    Uiso  0.012670 H
   H705       1.0     0.881990     0.253740     0.708490    Uiso  0.012670 H
   H706       1.0     0.842030     0.242410     0.735570    Uiso  0.012670 H
   H707       1.0     0.838190     0.329170     0.666980    Uiso  0.012670 H
   H708       1.0     0.798490     0.317970     0.693940    Uiso  0.012670 H
   H709       1.0     0.775610     0.341070     0.610900    Uiso  0.012670 H
   H710       1.0     0.759510     0.325490     0.658350    Uiso  0.012670 H
   H711       1.0     0.908020     0.257300     0.524080    Uiso  0.012670 H
   H712       1.0     0.933760     0.214520     0.546900    Uiso  0.012670 H
   H713       1.0     0.843630     0.229280     0.558950    Uiso  0.012670 H
   H714       1.0     0.868980     0.187110     0.581310    Uiso  0.012670 H
   Fe85       1.0     0.114230     0.657700     0.283840    Uiso  0.012670 Fe
   Fe86       1.0     0.306560     0.530340     0.359630    Uiso  0.012670 Fe
   C1219      1.0     0.422400     0.547230     0.460920    Uiso  0.012670 C
   C1220      1.0     0.361020     0.512470     0.399550    Uiso  0.012670 C
   C1221      1.0     0.376030     0.504030     0.414550    Uiso  0.012670 C
   C1222      1.0     0.316790     0.427460     0.405210    Uiso  0.012670 C
   C1223      1.0     0.312270     0.474890     0.382200    Uiso  0.012670 C
   C1224      1.0     0.310890     0.451670     0.406410    Uiso  0.012670 C
   C1225      1.0     0.304580     0.453040     0.430680    Uiso  0.012670 C
   C1226      1.0     0.185940     0.648430     0.208370    Uiso  0.012670 C
   C1227      1.0     0.159360     0.625010     0.253050    Uiso  0.012670 C
   C1228      1.0     0.182180     0.624940     0.227950    Uiso  0.012670 C
   C1229      1.0     0.201450     0.601430     0.223900    Uiso  0.012670 C
   C1230      1.0     0.162970     0.705160     0.267990    Uiso  0.012670 C
   C1231      1.0     0.144040     0.668310     0.299610    Uiso  0.012670 C
   C1232      1.0     0.158700     0.685300     0.292400    Uiso  0.012670 C
   C1233      1.0     0.176810     0.720830     0.261520    Uiso  0.012670 C
   C1234      1.0     0.203100     0.732610     0.271990    Uiso  0.012670 C
   C1235      1.0     0.186750     0.717260     0.279270    Uiso  0.012670 C
   C1236      1.0     0.168510     0.681900     0.310160    Uiso  0.012670 C
   C1237      1.0     0.182220     0.697570     0.303740    Uiso  0.012670 C
   C1238      1.0     0.284250     0.620990     0.322640    Uiso  0.012670 C
   C1239      1.0     0.275200     0.648410     0.313630    Uiso  0.012670 C
   C1240      1.0     0.322240     0.536320     0.241940    Uiso  0.012670 C
   C1241      1.0     0.341660     0.528300     0.273040    Uiso  0.012670 C
   C1242      1.0     0.339720     0.539870     0.246720    Uiso  0.012670 C
   C1243      1.0     0.318890     0.549380     0.217500    Uiso  0.012670 C
   C1244      1.0     0.077960     0.668080     0.332570    Uiso  0.012670 C
   C1245      1.0     0.332990     0.566150     0.197470    Uiso  0.012670 C
   C1246      1.0     0.354380     0.555920     0.226380    Uiso  0.012670 C
   C1247      1.0     0.351110     0.568810     0.202130    Uiso  0.012670 C
   O715       1.0     0.425590     0.502140     0.461030    Uiso  0.012670 O
   O716       1.0     0.333270     0.525250     0.368830    Uiso  0.012670 O
   O717       1.0     0.408010     0.484770     0.443520    Uiso  0.012670 O
   O718       1.0     0.306370     0.496730     0.383700    Uiso  0.012670 O
   O719       1.0     0.360820     0.471760     0.319690    Uiso  0.012670 O
   O720       1.0     0.143410     0.646810     0.256260    Uiso  0.012670 O
   O721       1.0     0.092850     0.646700     0.280980    Uiso  0.012670 O
   O722       1.0     0.133960     0.672770     0.283900    Uiso  0.012670 O
   O723       1.0     0.142050     0.650000     0.321490    Uiso  0.012670 O
   O724       1.0     0.207970     0.749400     0.249270    Uiso  0.012670 O
   O725       1.0     0.212180     0.727710     0.288670    Uiso  0.012670 O
   O726       1.0     0.303790     0.565560     0.339260    Uiso  0.012670 O
   O727       1.0     0.258010     0.702490     0.293460    Uiso  0.012670 O
   O728       1.0     0.331120     0.511110     0.290160    Uiso  0.012670 O
   O729       1.0     0.277460     0.536570     0.353320    Uiso  0.012670 O
   O730       1.0     0.084100     0.672270     0.308550    Uiso  0.012670 O
   O731       1.0     0.157370     0.599430     0.339070    Uiso  0.012670 O
   H715       1.0     0.407290     0.539020     0.476220    Uiso  0.012670 H
   H716       1.0     0.340370     0.515320     0.409170    Uiso  0.012670 H
   H717       1.0     0.366490     0.500730     0.435290    Uiso  0.012670 H
   H718       1.0     0.321740     0.425540     0.386950    Uiso  0.012670 H
   H719       1.0     0.299990     0.471310     0.432360    Uiso  0.012670 H
   H720       1.0     0.171760     0.666980     0.210610    Uiso  0.012670 H
   H721       1.0     0.199500     0.582900     0.238420    Uiso  0.012670 H
   H722       1.0     0.155790     0.708490     0.253740    Uiso  0.012670 H
   H723       1.0     0.179980     0.735570     0.242410    Uiso  0.012670 H
   H724       1.0     0.165670     0.666980     0.329170    Uiso  0.012670 H
   H725       1.0     0.189610     0.693940     0.317970    Uiso  0.012670 H
   H726       1.0     0.272420     0.610900     0.341070    Uiso  0.012670 H
   H727       1.0     0.256650     0.658350     0.325490    Uiso  0.012670 H
   H728       1.0     0.310590     0.524080     0.257300    Uiso  0.012670 H
   H729       1.0     0.304830     0.546900     0.214520    Uiso  0.012670 H
   H730       1.0     0.368140     0.558950     0.229280    Uiso  0.012670 H
   H731       1.0     0.362600     0.581310     0.187110    Uiso  0.012670 H
   Fe87       1.0     0.283840     0.944230     0.114230    Uiso  0.012670 Fe
   Fe88       1.0     0.359630     0.803480     0.306560    Uiso  0.012670 Fe
   C1248      1.0     0.460920     0.569440     0.422400    Uiso  0.012670 C
   C1249      1.0     0.399550     0.726960     0.361020    Uiso  0.012670 C
   C1250      1.0     0.414550     0.705390     0.376030    Uiso  0.012670 C
   C1251      1.0     0.405210     0.850540     0.316790    Uiso  0.012670 C
   C1252      1.0     0.382200     0.830630     0.312270    Uiso  0.012670 C
   C1253      1.0     0.406410     0.831040     0.310890    Uiso  0.012670 C
   C1254      1.0     0.430680     0.811700     0.304580    Uiso  0.012670 C
   C1255      1.0     0.208370     0.957260     0.185940    Uiso  0.012670 C
   C1256      1.0     0.253050     0.962580     0.159360    Uiso  0.012670 C
   C1257      1.0     0.227950     0.964940     0.182180    Uiso  0.012670 C
   C1258      1.0     0.223900     0.973220     0.201450    Uiso  0.012670 C
   C1259      1.0     0.267990     0.863890     0.162970    Uiso  0.012670 C
   C1260      1.0     0.299610     0.888040     0.144040    Uiso  0.012670 C
   C1261      1.0     0.292400     0.863600     0.158700    Uiso  0.012670 C
   C1262      1.0     0.261520     0.840850     0.176810    Uiso  0.012670 C
   C1263      1.0     0.271990     0.792300     0.203100    Uiso  0.012670 C
   C1264      1.0     0.279270     0.816720     0.186750    Uiso  0.012670 C
   C1265      1.0     0.310160     0.839430     0.168510    Uiso  0.012670 C
   C1266      1.0     0.303740     0.816470     0.182220    Uiso  0.012670 C
   C1267      1.0     0.322640     0.772120     0.284250    Uiso  0.012670 C
   C1268      1.0     0.313630     0.762760     0.275200    Uiso  0.012670 C
   C1269      1.0     0.241940     0.899500     0.322240    Uiso  0.012670 C
   C1270      1.0     0.273040     0.857000     0.341660    Uiso  0.012670 C
   C1271      1.0     0.246720     0.873690     0.339720    Uiso  0.012670 C
   C1272      1.0     0.217500     0.914230     0.318890    Uiso  0.012670 C
   C1273      1.0     0.332570     0.921380     0.077960    Uiso  0.012670 C
   C1274      1.0     0.197470     0.903390     0.332990    Uiso  0.012670 C
   C1275      1.0     0.226380     0.863310     0.354380    Uiso  0.012670 C
   C1276      1.0     0.202130     0.877940     0.351110    Uiso  0.012670 C
   O732       1.0     0.461030     0.611240     0.425590    Uiso  0.012670 O
   O733       1.0     0.368830     0.772650     0.333270    Uiso  0.012670 O
   O734       1.0     0.443520     0.663700     0.408010    Uiso  0.012670 O
   O735       1.0     0.383700     0.813200     0.306370    Uiso  0.012670 O
   O736       1.0     0.319690     0.847730     0.360820    Uiso  0.012670 O
   O737       1.0     0.256260     0.953520     0.143410    Uiso  0.012670 O
   O738       1.0     0.280980     0.979460     0.092850    Uiso  0.012670 O
   O739       1.0     0.283900     0.909370     0.133960    Uiso  0.012670 O
   O740       1.0     0.321490     0.886470     0.142050    Uiso  0.012670 O
   O741       1.0     0.249270     0.793360     0.207970    Uiso  0.012670 O
   O742       1.0     0.288670     0.771430     0.212180    Uiso  0.012670 O
   O743       1.0     0.339260     0.791400     0.303790    Uiso  0.012670 O
   O744       1.0     0.293460     0.746040     0.258010    Uiso  0.012670 O
   O745       1.0     0.290160     0.867620     0.331120    Uiso  0.012670 O
   O746       1.0     0.353320     0.832640     0.277460    Uiso  0.012670 O
   O747       1.0     0.308550     0.935080     0.084100    Uiso  0.012670 O
   O748       1.0     0.339070     0.904140     0.157370    Uiso  0.012670 O
   H732       1.0     0.476220     0.577470     0.407290    Uiso  0.012670 H
   H733       1.0     0.409170     0.735150     0.340370    Uiso  0.012670 H
   H734       1.0     0.435290     0.697490     0.366490    Uiso  0.012670 H
   H735       1.0     0.386950     0.865770     0.321740    Uiso  0.012670 H
   H736       1.0     0.432360     0.796340     0.299990    Uiso  0.012670 H
   H737       1.0     0.210610     0.950640     0.171760    Uiso  0.012670 H
   H738       1.0     0.238420     0.979180     0.199500    Uiso  0.012670 H
   H739       1.0     0.253740     0.881990     0.155790    Uiso  0.012670 H
   H740       1.0     0.242410     0.842030     0.179980    Uiso  0.012670 H
   H741       1.0     0.329170     0.838190     0.165670    Uiso  0.012670 H
   H742       1.0     0.317970     0.798490     0.189610    Uiso  0.012670 H
   H743       1.0     0.341070     0.775610     0.272420    Uiso  0.012670 H
   H744       1.0     0.325490     0.759510     0.256650    Uiso  0.012670 H
   H745       1.0     0.257300     0.908020     0.310590    Uiso  0.012670 H
   H746       1.0     0.214520     0.933760     0.304830    Uiso  0.012670 H
   H747       1.0     0.229280     0.843630     0.368140    Uiso  0.012670 H
   H748       1.0     0.187110     0.868980     0.362600    Uiso  0.012670 H
   Fe89       1.0     0.283840     0.657700     0.944230    Uiso  0.012670 Fe
   Fe90       1.0     0.359630     0.530340     0.803480    Uiso  0.012670 Fe
   C1277      1.0     0.460920     0.547230     0.569440    Uiso  0.012670 C
   C1278      1.0     0.399550     0.512470     0.726960    Uiso  0.012670 C
   C1279      1.0     0.414550     0.504030     0.705390    Uiso  0.012670 C
   C1280      1.0     0.405210     0.427460     0.850540    Uiso  0.012670 C
   C1281      1.0     0.382200     0.474890     0.830630    Uiso  0.012670 C
   C1282      1.0     0.406410     0.451670     0.831040    Uiso  0.012670 C
   C1283      1.0     0.430680     0.453040     0.811700    Uiso  0.012670 C
   C1284      1.0     0.208370     0.648430     0.957260    Uiso  0.012670 C
   C1285      1.0     0.253050     0.625010     0.962580    Uiso  0.012670 C
   C1286      1.0     0.227950     0.624940     0.964940    Uiso  0.012670 C
   C1287      1.0     0.223900     0.601430     0.973220    Uiso  0.012670 C
   C1288      1.0     0.267990     0.705160     0.863890    Uiso  0.012670 C
   C1289      1.0     0.299610     0.668310     0.888040    Uiso  0.012670 C
   C1290      1.0     0.292400     0.685300     0.863600    Uiso  0.012670 C
   C1291      1.0     0.261520     0.720830     0.840850    Uiso  0.012670 C
   C1292      1.0     0.271990     0.732610     0.792300    Uiso  0.012670 C
   C1293      1.0     0.279270     0.717260     0.816720    Uiso  0.012670 C
   C1294      1.0     0.310160     0.681900     0.839430    Uiso  0.012670 C
   C1295      1.0     0.303740     0.697570     0.816470    Uiso  0.012670 C
   C1296      1.0     0.322640     0.620990     0.772120    Uiso  0.012670 C
   C1297      1.0     0.313630     0.648410     0.762760    Uiso  0.012670 C
   C1298      1.0     0.241940     0.536320     0.899500    Uiso  0.012670 C
   C1299      1.0     0.273040     0.528300     0.857000    Uiso  0.012670 C
   C1300      1.0     0.246720     0.539870     0.873690    Uiso  0.012670 C
   C1301      1.0     0.217500     0.549380     0.914230    Uiso  0.012670 C
   C1302      1.0     0.332570     0.668080     0.921380    Uiso  0.012670 C
   C1303      1.0     0.197470     0.566150     0.903390    Uiso  0.012670 C
   C1304      1.0     0.226380     0.555920     0.863310    Uiso  0.012670 C
   C1305      1.0     0.202130     0.568810     0.877940    Uiso  0.012670 C
   O749       1.0     0.461030     0.502140     0.611240    Uiso  0.012670 O
   O750       1.0     0.368830     0.525250     0.772650    Uiso  0.012670 O
   O751       1.0     0.443520     0.484770     0.663700    Uiso  0.012670 O
   O752       1.0     0.383700     0.496730     0.813200    Uiso  0.012670 O
   O753       1.0     0.319690     0.471760     0.847730    Uiso  0.012670 O
   O754       1.0     0.256260     0.646810     0.953520    Uiso  0.012670 O
   O755       1.0     0.280980     0.646700     0.979460    Uiso  0.012670 O
   O756       1.0     0.283900     0.672770     0.909370    Uiso  0.012670 O
   O757       1.0     0.321490     0.650000     0.886470    Uiso  0.012670 O
   O758       1.0     0.249270     0.749400     0.793360    Uiso  0.012670 O
   O759       1.0     0.288670     0.727710     0.771430    Uiso  0.012670 O
   O760       1.0     0.339260     0.565560     0.791400    Uiso  0.012670 O
   O761       1.0     0.293460     0.702490     0.746040    Uiso  0.012670 O
   O762       1.0     0.290160     0.511110     0.867620    Uiso  0.012670 O
   O763       1.0     0.353320     0.536570     0.832640    Uiso  0.012670 O
   O764       1.0     0.308550     0.672270     0.935080    Uiso  0.012670 O
   O765       1.0     0.339070     0.599430     0.904140    Uiso  0.012670 O
   H749       1.0     0.476220     0.539020     0.577470    Uiso  0.012670 H
   H750       1.0     0.409170     0.515320     0.735150    Uiso  0.012670 H
   H751       1.0     0.435290     0.500730     0.697490    Uiso  0.012670 H
   H752       1.0     0.386950     0.425540     0.865770    Uiso  0.012670 H
   H753       1.0     0.432360     0.471310     0.796340    Uiso  0.012670 H
   H754       1.0     0.210610     0.666980     0.950640    Uiso  0.012670 H
   H755       1.0     0.238420     0.582900     0.979180    Uiso  0.012670 H
   H756       1.0     0.253740     0.708490     0.881990    Uiso  0.012670 H
   H757       1.0     0.242410     0.735570     0.842030    Uiso  0.012670 H
   H758       1.0     0.329170     0.666980     0.838190    Uiso  0.012670 H
   H759       1.0     0.317970     0.693940     0.798490    Uiso  0.012670 H
   H760       1.0     0.341070     0.610900     0.775610    Uiso  0.012670 H
   H761       1.0     0.325490     0.658350     0.759510    Uiso  0.012670 H
   H762       1.0     0.257300     0.524080     0.908020    Uiso  0.012670 H
   H763       1.0     0.214520     0.546900     0.933760    Uiso  0.012670 H
   H764       1.0     0.229280     0.558950     0.843630    Uiso  0.012670 H
   H765       1.0     0.187110     0.581310     0.868980    Uiso  0.012670 H
   Fe91       1.0     0.114230     0.944230     0.657700    Uiso  0.012670 Fe
   Fe92       1.0     0.306560     0.803480     0.530340    Uiso  0.012670 Fe
   C1306      1.0     0.422400     0.569440     0.547230    Uiso  0.012670 C
   C1307      1.0     0.361020     0.726960     0.512470    Uiso  0.012670 C
   C1308      1.0     0.376030     0.705390     0.504030    Uiso  0.012670 C
   C1309      1.0     0.316790     0.850540     0.427460    Uiso  0.012670 C
   C1310      1.0     0.312270     0.830630     0.474890    Uiso  0.012670 C
   C1311      1.0     0.310890     0.831040     0.451670    Uiso  0.012670 C
   C1312      1.0     0.304580     0.811700     0.453040    Uiso  0.012670 C
   C1313      1.0     0.185940     0.957260     0.648430    Uiso  0.012670 C
   C1314      1.0     0.159360     0.962580     0.625010    Uiso  0.012670 C
   C1315      1.0     0.182180     0.964940     0.624940    Uiso  0.012670 C
   C1316      1.0     0.201450     0.973220     0.601430    Uiso  0.012670 C
   C1317      1.0     0.162970     0.863890     0.705160    Uiso  0.012670 C
   C1318      1.0     0.144040     0.888040     0.668310    Uiso  0.012670 C
   C1319      1.0     0.158700     0.863600     0.685300    Uiso  0.012670 C
   C1320      1.0     0.176810     0.840850     0.720830    Uiso  0.012670 C
   C1321      1.0     0.203100     0.792300     0.732610    Uiso  0.012670 C
   C1322      1.0     0.186750     0.816720     0.717260    Uiso  0.012670 C
   C1323      1.0     0.168510     0.839430     0.681900    Uiso  0.012670 C
   C1324      1.0     0.182220     0.816470     0.697570    Uiso  0.012670 C
   C1325      1.0     0.284250     0.772120     0.620990    Uiso  0.012670 C
   C1326      1.0     0.275200     0.762760     0.648410    Uiso  0.012670 C
   C1327      1.0     0.322240     0.899500     0.536320    Uiso  0.012670 C
   C1328      1.0     0.341660     0.857000     0.528300    Uiso  0.012670 C
   C1329      1.0     0.339720     0.873690     0.539870    Uiso  0.012670 C
   C1330      1.0     0.318890     0.914230     0.549380    Uiso  0.012670 C
   C1331      1.0     0.077960     0.921380     0.668080    Uiso  0.012670 C
   C1332      1.0     0.332990     0.903390     0.566150    Uiso  0.012670 C
   C1333      1.0     0.354380     0.863310     0.555920    Uiso  0.012670 C
   C1334      1.0     0.351110     0.877940     0.568810    Uiso  0.012670 C
   O766       1.0     0.425590     0.611240     0.502140    Uiso  0.012670 O
   O767       1.0     0.333270     0.772650     0.525250    Uiso  0.012670 O
   O768       1.0     0.408010     0.663700     0.484770    Uiso  0.012670 O
   O769       1.0     0.306370     0.813200     0.496730    Uiso  0.012670 O
   O770       1.0     0.360820     0.847730     0.471760    Uiso  0.012670 O
   O771       1.0     0.143410     0.953520     0.646810    Uiso  0.012670 O
   O772       1.0     0.092850     0.979460     0.646700    Uiso  0.012670 O
   O773       1.0     0.133960     0.909370     0.672770    Uiso  0.012670 O
   O774       1.0     0.142050     0.886470     0.650000    Uiso  0.012670 O
   O775       1.0     0.207970     0.793360     0.749400    Uiso  0.012670 O
   O776       1.0     0.212180     0.771430     0.727710    Uiso  0.012670 O
   O777       1.0     0.303790     0.791400     0.565560    Uiso  0.012670 O
   O778       1.0     0.258010     0.746040     0.702490    Uiso  0.012670 O
   O779       1.0     0.331120     0.867620     0.511110    Uiso  0.012670 O
   O780       1.0     0.277460     0.832640     0.536570    Uiso  0.012670 O
   O781       1.0     0.084100     0.935080     0.672270    Uiso  0.012670 O
   O782       1.0     0.157370     0.904140     0.599430    Uiso  0.012670 O
   H766       1.0     0.407290     0.577470     0.539020    Uiso  0.012670 H
   H767       1.0     0.340370     0.735150     0.515320    Uiso  0.012670 H
   H768       1.0     0.366490     0.697490     0.500730    Uiso  0.012670 H
   H769       1.0     0.321740     0.865770     0.425540    Uiso  0.012670 H
   H770       1.0     0.299990     0.796340     0.471310    Uiso  0.012670 H
   H771       1.0     0.171760     0.950640     0.666980    Uiso  0.012670 H
   H772       1.0     0.199500     0.979180     0.582900    Uiso  0.012670 H
   H773       1.0     0.155790     0.881990     0.708490    Uiso  0.012670 H
   H774       1.0     0.179980     0.842030     0.735570    Uiso  0.012670 H
   H775       1.0     0.165670     0.838190     0.666980    Uiso  0.012670 H
   H776       1.0     0.189610     0.798490     0.693940    Uiso  0.012670 H
   H777       1.0     0.272420     0.775610     0.610900    Uiso  0.012670 H
   H778       1.0     0.256650     0.759510     0.658350    Uiso  0.012670 H
   H779       1.0     0.310590     0.908020     0.524080    Uiso  0.012670 H
   H780       1.0     0.304830     0.933760     0.546900    Uiso  0.012670 H
   H781       1.0     0.368140     0.843630     0.558950    Uiso  0.012670 H
   H782       1.0     0.362600     0.868980     0.581310    Uiso  0.012670 H
   Fe93       1.0     0.944230     0.114230     0.283840    Uiso  0.012670 Fe
   Fe94       1.0     0.803480     0.306560     0.359630    Uiso  0.012670 Fe
   C1335      1.0     0.569440     0.422400     0.460920    Uiso  0.012670 C
   C1336      1.0     0.726960     0.361020     0.399550    Uiso  0.012670 C
   C1337      1.0     0.705390     0.376030     0.414550    Uiso  0.012670 C
   C1338      1.0     0.850540     0.316790     0.405210    Uiso  0.012670 C
   C1339      1.0     0.830630     0.312270     0.382200    Uiso  0.012670 C
   C1340      1.0     0.831040     0.310890     0.406410    Uiso  0.012670 C
   C1341      1.0     0.811700     0.304580     0.430680    Uiso  0.012670 C
   C1342      1.0     0.957260     0.185940     0.208370    Uiso  0.012670 C
   C1343      1.0     0.962580     0.159360     0.253050    Uiso  0.012670 C
   C1344      1.0     0.964940     0.182180     0.227950    Uiso  0.012670 C
   C1345      1.0     0.973220     0.201450     0.223900    Uiso  0.012670 C
   C1346      1.0     0.863890     0.162970     0.267990    Uiso  0.012670 C
   C1347      1.0     0.888040     0.144040     0.299610    Uiso  0.012670 C
   C1348      1.0     0.863600     0.158700     0.292400    Uiso  0.012670 C
   C1349      1.0     0.840850     0.176810     0.261520    Uiso  0.012670 C
   C1350      1.0     0.792300     0.203100     0.271990    Uiso  0.012670 C
   C1351      1.0     0.816720     0.186750     0.279270    Uiso  0.012670 C
   C1352      1.0     0.839430     0.168510     0.310160    Uiso  0.012670 C
   C1353      1.0     0.816470     0.182220     0.303740    Uiso  0.012670 C
   C1354      1.0     0.772120     0.284250     0.322640    Uiso  0.012670 C
   C1355      1.0     0.762760     0.275200     0.313630    Uiso  0.012670 C
   C1356      1.0     0.899500     0.322240     0.241940    Uiso  0.012670 C
   C1357      1.0     0.857000     0.341660     0.273040    Uiso  0.012670 C
   C1358      1.0     0.873690     0.339720     0.246720    Uiso  0.012670 C
   C1359      1.0     0.914230     0.318890     0.217500    Uiso  0.012670 C
   C1360      1.0     0.921380     0.077960     0.332570    Uiso  0.012670 C
   C1361      1.0     0.903390     0.332990     0.197470    Uiso  0.012670 C
   C1362      1.0     0.863310     0.354380     0.226380    Uiso  0.012670 C
   C1363      1.0     0.877940     0.351110     0.202130    Uiso  0.012670 C
   O783       1.0     0.611240     0.425590     0.461030    Uiso  0.012670 O
   O784       1.0     0.772650     0.333270     0.368830    Uiso  0.012670 O
   O785       1.0     0.663700     0.408010     0.443520    Uiso  0.012670 O
   O786       1.0     0.813200     0.306370     0.383700    Uiso  0.012670 O
   O787       1.0     0.847730     0.360820     0.319690    Uiso  0.012670 O
   O788       1.0     0.953520     0.143410     0.256260    Uiso  0.012670 O
   O789       1.0     0.979460     0.092850     0.280980    Uiso  0.012670 O
   O790       1.0     0.909370     0.133960     0.283900    Uiso  0.012670 O
   O791       1.0     0.886470     0.142050     0.321490    Uiso  0.012670 O
   O792       1.0     0.793360     0.207970     0.249270    Uiso  0.012670 O
   O793       1.0     0.771430     0.212180     0.288670    Uiso  0.012670 O
   O794       1.0     0.791400     0.303790     0.339260    Uiso  0.012670 O
   O795       1.0     0.746040     0.258010     0.293460    Uiso  0.012670 O
   O796       1.0     0.867620     0.331120     0.290160    Uiso  0.012670 O
   O797       1.0     0.832640     0.277460     0.353320    Uiso  0.012670 O
   O798       1.0     0.935080     0.084100     0.308550    Uiso  0.012670 O
   O799       1.0     0.904140     0.157370     0.339070    Uiso  0.012670 O
   H783       1.0     0.577470     0.407290     0.476220    Uiso  0.012670 H
   H784       1.0     0.735150     0.340370     0.409170    Uiso  0.012670 H
   H785       1.0     0.697490     0.366490     0.435290    Uiso  0.012670 H
   H786       1.0     0.865770     0.321740     0.386950    Uiso  0.012670 H
   H787       1.0     0.796340     0.299990     0.432360    Uiso  0.012670 H
   H788       1.0     0.950640     0.171760     0.210610    Uiso  0.012670 H
   H789       1.0     0.979180     0.199500     0.238420    Uiso  0.012670 H
   H790       1.0     0.881990     0.155790     0.253740    Uiso  0.012670 H
   H791       1.0     0.842030     0.179980     0.242410    Uiso  0.012670 H
   H792       1.0     0.838190     0.165670     0.329170    Uiso  0.012670 H
   H793       1.0     0.798490     0.189610     0.317970    Uiso  0.012670 H
   H794       1.0     0.775610     0.272420     0.341070    Uiso  0.012670 H
   H795       1.0     0.759510     0.256650     0.325490    Uiso  0.012670 H
   H796       1.0     0.908020     0.310590     0.257300    Uiso  0.012670 H
   H797       1.0     0.933760     0.304830     0.214520    Uiso  0.012670 H
   H798       1.0     0.843630     0.368140     0.229280    Uiso  0.012670 H
   H799       1.0     0.868980     0.362600     0.187110    Uiso  0.012670 H
   Fe95       1.0     0.657700     0.283840     0.114230    Uiso  0.012670 Fe
   Fe96       1.0     0.530340     0.359630     0.306560    Uiso  0.012670 Fe
   C1364      1.0     0.547230     0.460920     0.422400    Uiso  0.012670 C
   C1365      1.0     0.512470     0.399550     0.361020    Uiso  0.012670 C
   C1366      1.0     0.504030     0.414550     0.376030    Uiso  0.012670 C
   C1367      1.0     0.427460     0.405210     0.316790    Uiso  0.012670 C
   C1368      1.0     0.474890     0.382200     0.312270    Uiso  0.012670 C
   C1369      1.0     0.451670     0.406410     0.310890    Uiso  0.012670 C
   C1370      1.0     0.453040     0.430680     0.304580    Uiso  0.012670 C
   C1371      1.0     0.648430     0.208370     0.185940    Uiso  0.012670 C
   C1372      1.0     0.625010     0.253050     0.159360    Uiso  0.012670 C
   C1373      1.0     0.624940     0.227950     0.182180    Uiso  0.012670 C
   C1374      1.0     0.601430     0.223900     0.201450    Uiso  0.012670 C
   C1375      1.0     0.705160     0.267990     0.162970    Uiso  0.012670 C
   C1376      1.0     0.668310     0.299610     0.144040    Uiso  0.012670 C
   C1377      1.0     0.685300     0.292400     0.158700    Uiso  0.012670 C
   C1378      1.0     0.720830     0.261520     0.176810    Uiso  0.012670 C
   C1379      1.0     0.732610     0.271990     0.203100    Uiso  0.012670 C
   C1380      1.0     0.717260     0.279270     0.186750    Uiso  0.012670 C
   C1381      1.0     0.681900     0.310160     0.168510    Uiso  0.012670 C
   C1382      1.0     0.697570     0.303740     0.182220    Uiso  0.012670 C
   C1383      1.0     0.620990     0.322640     0.284250    Uiso  0.012670 C
   C1384      1.0     0.648410     0.313630     0.275200    Uiso  0.012670 C
   C1385      1.0     0.536320     0.241940     0.322240    Uiso  0.012670 C
   C1386      1.0     0.528300     0.273040     0.341660    Uiso  0.012670 C
   C1387      1.0     0.539870     0.246720     0.339720    Uiso  0.012670 C
   C1388      1.0     0.549380     0.217500     0.318890    Uiso  0.012670 C
   C1389      1.0     0.668080     0.332570     0.077960    Uiso  0.012670 C
   C1390      1.0     0.566150     0.197470     0.332990    Uiso  0.012670 C
   C1391      1.0     0.555920     0.226380     0.354380    Uiso  0.012670 C
   C1392      1.0     0.568810     0.202130     0.351110    Uiso  0.012670 C
   O800       1.0     0.502140     0.461030     0.425590    Uiso  0.012670 O
   O801       1.0     0.525250     0.368830     0.333270    Uiso  0.012670 O
   O802       1.0     0.484770     0.443520     0.408010    Uiso  0.012670 O
   O803       1.0     0.496730     0.383700     0.306370    Uiso  0.012670 O
   O804       1.0     0.471760     0.319690     0.360820    Uiso  0.012670 O
   O805       1.0     0.646810     0.256260     0.143410    Uiso  0.012670 O
   O806       1.0     0.646700     0.280980     0.092850    Uiso  0.012670 O
   O807       1.0     0.672770     0.283900     0.133960    Uiso  0.012670 O
   O808       1.0     0.650000     0.321490     0.142050    Uiso  0.012670 O
   O809       1.0     0.749400     0.249270     0.207970    Uiso  0.012670 O
   O810       1.0     0.727710     0.288670     0.212180    Uiso  0.012670 O
   O811       1.0     0.565560     0.339260     0.303790    Uiso  0.012670 O
   O812       1.0     0.702490     0.293460     0.258010    Uiso  0.012670 O
   O813       1.0     0.511110     0.290160     0.331120    Uiso  0.012670 O
   O814       1.0     0.536570     0.353320     0.277460    Uiso  0.012670 O
   O815       1.0     0.672270     0.308550     0.084100    Uiso  0.012670 O
   O816       1.0     0.599430     0.339070     0.157370    Uiso  0.012670 O
   H800       1.0     0.539020     0.476220     0.407290    Uiso  0.012670 H
   H801       1.0     0.515320     0.409170     0.340370    Uiso  0.012670 H
   H802       1.0     0.500730     0.435290     0.366490    Uiso  0.012670 H
   H803       1.0     0.425540     0.386950     0.321740    Uiso  0.012670 H
   H804       1.0     0.471310     0.432360     0.299990    Uiso  0.012670 H
   H805       1.0     0.666980     0.210610     0.171760    Uiso  0.012670 H
   H806       1.0     0.582900     0.238420     0.199500    Uiso  0.012670 H
   H807       1.0     0.708490     0.253740     0.155790    Uiso  0.012670 H
   H808       1.0     0.735570     0.242410     0.179980    Uiso  0.012670 H
   H809       1.0     0.666980     0.329170     0.165670    Uiso  0.012670 H
   H810       1.0     0.693940     0.317970     0.189610    Uiso  0.012670 H
   H811       1.0     0.610900     0.341070     0.272420    Uiso  0.012670 H
   H812       1.0     0.658350     0.325490     0.256650    Uiso  0.012670 H
   H813       1.0     0.524080     0.257300     0.310590    Uiso  0.012670 H
   H814       1.0     0.546900     0.214520     0.304830    Uiso  0.012670 H
   H815       1.0     0.558950     0.229280     0.368140    Uiso  0.012670 H
   H816       1.0     0.581310     0.187110     0.362600    Uiso  0.012670 H
   Fe97       1.0     0.418800     0.471850     0.471850    Uiso  0.012670 Fe
   Fe98       1.0     0.471850     0.418800     0.637500    Uiso  0.012670 Fe
   Fe99       1.0     0.471850     0.637500     0.418800    Uiso  0.012670 Fe
   Fe100      1.0     0.637500     0.471850     0.471850    Uiso  0.012670 Fe
   Fe101      1.0     0.471850     0.418800     0.471850    Uiso  0.012670 Fe
   Fe102      1.0     0.637500     0.471850     0.418800    Uiso  0.012670 Fe
   Fe103      1.0     0.418800     0.471850     0.637500    Uiso  0.012670 Fe
   Fe104      1.0     0.471850     0.637500     0.471850    Uiso  0.012670 Fe
   Fe105      1.0     0.471850     0.471850     0.418800    Uiso  0.012670 Fe
   Fe106      1.0     0.418800     0.637500     0.471850    Uiso  0.012670 Fe
   Fe107      1.0     0.637500     0.418800     0.471850    Uiso  0.012670 Fe
   Fe108      1.0     0.471850     0.471850     0.637500    Uiso  0.012670 Fe
   Fe109      1.0     0.831200     0.778150     0.612500    Uiso  0.012670 Fe
   Fe110      1.0     0.778150     0.831200     0.778150    Uiso  0.012670 Fe
   Fe111      1.0     0.778150     0.612500     0.778150    Uiso  0.012670 Fe
   Fe112      1.0     0.612500     0.778150     0.831200    Uiso  0.012670 Fe
   Fe113      1.0     0.778150     0.831200     0.612500    Uiso  0.012670 Fe
   Fe114      1.0     0.612500     0.778150     0.778150    Uiso  0.012670 Fe
   Fe115      1.0     0.831200     0.778150     0.778150    Uiso  0.012670 Fe
   Fe116      1.0     0.778150     0.612500     0.831200    Uiso  0.012670 Fe
   Fe117      1.0     0.778150     0.778150     0.612500    Uiso  0.012670 Fe
   Fe118      1.0     0.831200     0.612500     0.778150    Uiso  0.012670 Fe
   Fe119      1.0     0.612500     0.831200     0.778150    Uiso  0.012670 Fe
   Fe120      1.0     0.778150     0.778150     0.831200    Uiso  0.012670 Fe
   Fe121      1.0     0.125000     0.340650     0.625000    Uiso  0.012670 Fe
   O817       1.0     0.125000     0.310080     0.625000    Uiso  0.012670 O
   Fe122      1.0     0.340650     0.125000     0.909350    Uiso  0.012670 Fe
   O818       1.0     0.310080     0.125000     0.939920    Uiso  0.012670 O
   Fe123      1.0     0.625000     0.909350     0.125000    Uiso  0.012670 Fe
   O819       1.0     0.625000     0.939920     0.125000    Uiso  0.012670 O
   Fe124      1.0     0.909350     0.625000     0.340650    Uiso  0.012670 Fe
   O820       1.0     0.939920     0.625000     0.310080    Uiso  0.012670 O
   Fe125      1.0     0.625000     0.125000     0.340650    Uiso  0.012670 Fe
   O821       1.0     0.625000     0.125000     0.310080    Uiso  0.012670 O
   Fe126      1.0     0.909350     0.340650     0.125000    Uiso  0.012670 Fe
   O822       1.0     0.939920     0.310080     0.125000    Uiso  0.012670 O
   Fe127      1.0     0.125000     0.625000     0.909350    Uiso  0.012670 Fe
   O823       1.0     0.125000     0.625000     0.939920    Uiso  0.012670 O
   Fe128      1.0     0.340650     0.909350     0.625000    Uiso  0.012670 Fe
   O824       1.0     0.310080     0.939920     0.625000    Uiso  0.012670 O
   Fe129      1.0     0.340650     0.625000     0.125000    Uiso  0.012670 Fe
   O825       1.0     0.310080     0.625000     0.125000    Uiso  0.012670 O
   Fe130      1.0     0.125000     0.909350     0.340650    Uiso  0.012670 Fe
   O826       1.0     0.125000     0.939920     0.310080    Uiso  0.012670 O
   Fe131      1.0     0.909350     0.125000     0.625000    Uiso  0.012670 Fe
   O827       1.0     0.939920     0.125000     0.625000    Uiso  0.012670 O
   Fe132      1.0     0.625000     0.340650     0.909350    Uiso  0.012670 Fe
   O828       1.0     0.625000     0.310080     0.939920    Uiso  0.012670 O
   Fe133      1.0     0.125000     0.909350     0.625000    Uiso  0.012670 Fe
   O829       1.0     0.125000     0.939920     0.625000    Uiso  0.012670 O
   Fe134      1.0     0.909350     0.125000     0.340650    Uiso  0.012670 Fe
   O830       1.0     0.939920     0.125000     0.310080    Uiso  0.012670 O
   Fe135      1.0     0.625000     0.340650     0.125000    Uiso  0.012670 Fe
   O831       1.0     0.625000     0.310080     0.125000    Uiso  0.012670 O
   Fe136      1.0     0.340650     0.625000     0.909350    Uiso  0.012670 Fe
   O832       1.0     0.310080     0.625000     0.939920    Uiso  0.012670 O
   Fe137      1.0     0.625000     0.125000     0.909350    Uiso  0.012670 Fe
   O833       1.0     0.625000     0.125000     0.939920    Uiso  0.012670 O
   Fe138      1.0     0.340650     0.909350     0.125000    Uiso  0.012670 Fe
   O834       1.0     0.310080     0.939920     0.125000    Uiso  0.012670 O
   Fe139      1.0     0.125000     0.625000     0.340650    Uiso  0.012670 Fe
   O835       1.0     0.125000     0.625000     0.310080    Uiso  0.012670 O
   Fe140      1.0     0.909350     0.340650     0.625000    Uiso  0.012670 Fe
   O836       1.0     0.939920     0.310080     0.625000    Uiso  0.012670 O
   Fe141      1.0     0.909350     0.625000     0.125000    Uiso  0.012670 Fe
   O837       1.0     0.939920     0.625000     0.125000    Uiso  0.012670 O
   Fe142      1.0     0.125000     0.340650     0.909350    Uiso  0.012670 Fe
   O838       1.0     0.125000     0.310080     0.939920    Uiso  0.012670 O
   Fe143      1.0     0.340650     0.125000     0.625000    Uiso  0.012670 Fe
   O839       1.0     0.310080     0.125000     0.625000    Uiso  0.012670 O
   Fe144      1.0     0.625000     0.909350     0.340650    Uiso  0.012670 Fe
   O840       1.0     0.625000     0.939920     0.310080    Uiso  0.012670 O
   Fe145      1.0     0.229830     0.229830     0.770170    Uiso  0.012670 Fe
   O841       1.0     0.251570     0.251570     0.748430    Uiso  0.012670 O
   Fe146      1.0     0.770170     0.770170     0.229830    Uiso  0.012670 Fe
   O842       1.0     0.748430     0.748430     0.251570    Uiso  0.012670 O
   Fe147      1.0     0.770170     0.229830     0.229830    Uiso  0.012670 Fe
   O843       1.0     0.748430     0.251570     0.251570    Uiso  0.012670 O
   Fe148      1.0     0.229830     0.770170     0.770170    Uiso  0.012670 Fe
   O844       1.0     0.251570     0.748430     0.748430    Uiso  0.012670 O
   Fe149      1.0     0.229830     0.770170     0.229830    Uiso  0.012670 Fe
   O845       1.0     0.251570     0.748430     0.251570    Uiso  0.012670 O
   Fe150      1.0     0.770170     0.229830     0.770170    Uiso  0.012670 Fe
   O846       1.0     0.748430     0.251570     0.748430    Uiso  0.012670 O
   Fe151      1.0     0.020170     0.020170     0.479830    Uiso  0.012670 Fe
   O847       1.0     0.998430     0.998430     0.501570    Uiso  0.012670 O
   Fe152      1.0     0.479830     0.479830     0.020170    Uiso  0.012670 Fe
   O848       1.0     0.501570     0.501570     0.998430    Uiso  0.012670 O
   Fe153      1.0     0.479830     0.020170     0.479830    Uiso  0.012670 Fe
   O849       1.0     0.501570     0.998430     0.501570    Uiso  0.012670 O
   Fe154      1.0     0.020170     0.479830     0.020170    Uiso  0.012670 Fe
   O850       1.0     0.998430     0.501570     0.998430    Uiso  0.012670 O
   Fe155      1.0     0.020170     0.479830     0.479830    Uiso  0.012670 Fe
   O851       1.0     0.998430     0.501570     0.501570    Uiso  0.012670 O
   Fe156      1.0     0.479830     0.020170     0.020170    Uiso  0.012670 Fe
   O852       1.0     0.501570     0.998430     0.998430    Uiso  0.012670 O
   Fe157      1.0     0.235920     0.288960     0.737560    Uiso  0.012670 Fe
   Fe158      1.0     0.288960     0.235920     0.737560    Uiso  0.012670 Fe
   Fe159      1.0     0.737560     0.737560     0.235920    Uiso  0.012670 Fe
   Fe160      1.0     0.737560     0.737560     0.288960    Uiso  0.012670 Fe
   Fe161      1.0     0.737560     0.235920     0.288960    Uiso  0.012670 Fe
   Fe162      1.0     0.737560     0.288960     0.235920    Uiso  0.012670 Fe
   Fe163      1.0     0.235920     0.737560     0.737560    Uiso  0.012670 Fe
   Fe164      1.0     0.288960     0.737560     0.737560    Uiso  0.012670 Fe
   Fe165      1.0     0.288960     0.737560     0.235920    Uiso  0.012670 Fe
   Fe166      1.0     0.235920     0.737560     0.288960    Uiso  0.012670 Fe
   Fe167      1.0     0.737560     0.235920     0.737560    Uiso  0.012670 Fe
   Fe168      1.0     0.737560     0.288960     0.737560    Uiso  0.012670 Fe
   Fe169      1.0     0.014080     0.961040     0.512440    Uiso  0.012670 Fe
   Fe170      1.0     0.961040     0.014080     0.512440    Uiso  0.012670 Fe
   Fe171      1.0     0.512440     0.512440     0.961040    Uiso  0.012670 Fe
   Fe172      1.0     0.512440     0.512440     0.014080    Uiso  0.012670 Fe
   Fe173      1.0     0.512440     0.014080     0.512440    Uiso  0.012670 Fe
   Fe174      1.0     0.512440     0.961040     0.512440    Uiso  0.012670 Fe
   Fe175      1.0     0.014080     0.512440     0.961040    Uiso  0.012670 Fe
   Fe176      1.0     0.961040     0.512440     0.014080    Uiso  0.012670 Fe
   Fe177      1.0     0.961040     0.512440     0.512440    Uiso  0.012670 Fe
   Fe178      1.0     0.014080     0.512440     0.512440    Uiso  0.012670 Fe
   Fe179      1.0     0.512440     0.014080     0.961040    Uiso  0.012670 Fe
   Fe180      1.0     0.512440     0.961040     0.014080    Uiso  0.012670 Fe
   Fe181      1.0     0.325740     0.325740     0.492850    Uiso  0.012670 Fe
   C1393      1.0     0.357230     0.357230     0.522980    Uiso  0.012670 C
   C1394      1.0     0.372660     0.372660     0.516460    Uiso  0.012670 C
   C1395      1.0     0.419180     0.419180     0.489080    Uiso  0.012670 C
   C1396      1.0     0.403030     0.403030     0.499380    Uiso  0.012670 C
   C1397      1.0     0.317620     0.317620     0.577500    Uiso  0.012670 C
   C1398      1.0     0.308070     0.308070     0.606800    Uiso  0.012670 C
   C1399      1.0     0.280000     0.280000     0.690490    Uiso  0.012670 C
   C1400      1.0     0.289650     0.289650     0.662720    Uiso  0.012670 C
   O853       1.0     0.330630     0.330630     0.517870    Uiso  0.012670 O
   Fe182      1.0     0.325740     0.325740     0.855660    Uiso  0.012670 Fe
   C1401      1.0     0.357230     0.357230     0.762560    Uiso  0.012670 C
   C1402      1.0     0.372660     0.372660     0.738220    Uiso  0.012670 C
   C1403      1.0     0.419180     0.419180     0.672570    Uiso  0.012670 C
   C1404      1.0     0.403030     0.403030     0.694550    Uiso  0.012670 C
   C1405      1.0     0.317620     0.317620     0.787250    Uiso  0.012670 C
   C1406      1.0     0.308070     0.308070     0.777050    Uiso  0.012670 C
   C1407      1.0     0.280000     0.280000     0.749510    Uiso  0.012670 C
   C1408      1.0     0.289650     0.289650     0.757980    Uiso  0.012670 C
   O854       1.0     0.330630     0.330630     0.820860    Uiso  0.012670 O
   Fe183      1.0     0.492850     0.855660     0.325740    Uiso  0.012670 Fe
   C1409      1.0     0.522980     0.762560     0.357230    Uiso  0.012670 C
   C1410      1.0     0.516460     0.738220     0.372660    Uiso  0.012670 C
   C1411      1.0     0.489080     0.672570     0.419180    Uiso  0.012670 C
   C1412      1.0     0.499380     0.694550     0.403030    Uiso  0.012670 C
   C1413      1.0     0.577500     0.787250     0.317620    Uiso  0.012670 C
   C1414      1.0     0.606800     0.777050     0.308070    Uiso  0.012670 C
   C1415      1.0     0.690490     0.749510     0.280000    Uiso  0.012670 C
   C1416      1.0     0.662720     0.757980     0.289650    Uiso  0.012670 C
   O855       1.0     0.517870     0.820860     0.330630    Uiso  0.012670 O
   Fe184      1.0     0.855660     0.492850     0.325740    Uiso  0.012670 Fe
   C1417      1.0     0.762560     0.522980     0.357230    Uiso  0.012670 C
   C1418      1.0     0.738220     0.516460     0.372660    Uiso  0.012670 C
   C1419      1.0     0.672570     0.489080     0.419180    Uiso  0.012670 C
   C1420      1.0     0.694550     0.499380     0.403030    Uiso  0.012670 C
   C1421      1.0     0.787250     0.577500     0.317620    Uiso  0.012670 C
   C1422      1.0     0.777050     0.606800     0.308070    Uiso  0.012670 C
   C1423      1.0     0.749510     0.690490     0.280000    Uiso  0.012670 C
   C1424      1.0     0.757980     0.662720     0.289650    Uiso  0.012670 C
   O856       1.0     0.820860     0.517870     0.330630    Uiso  0.012670 O
   Fe185      1.0     0.492850     0.325740     0.325740    Uiso  0.012670 Fe
   C1425      1.0     0.522980     0.357230     0.357230    Uiso  0.012670 C
   C1426      1.0     0.516460     0.372660     0.372660    Uiso  0.012670 C
   C1427      1.0     0.489080     0.419180     0.419180    Uiso  0.012670 C
   C1428      1.0     0.499380     0.403030     0.403030    Uiso  0.012670 C
   C1429      1.0     0.577500     0.317620     0.317620    Uiso  0.012670 C
   C1430      1.0     0.606800     0.308070     0.308070    Uiso  0.012670 C
   C1431      1.0     0.690490     0.280000     0.280000    Uiso  0.012670 C
   C1432      1.0     0.662720     0.289650     0.289650    Uiso  0.012670 C
   O857       1.0     0.517870     0.330630     0.330630    Uiso  0.012670 O
   Fe186      1.0     0.855660     0.325740     0.325740    Uiso  0.012670 Fe
   C1433      1.0     0.762560     0.357230     0.357230    Uiso  0.012670 C
   C1434      1.0     0.738220     0.372660     0.372660    Uiso  0.012670 C
   C1435      1.0     0.672570     0.419180     0.419180    Uiso  0.012670 C
   C1436      1.0     0.694550     0.403030     0.403030    Uiso  0.012670 C
   C1437      1.0     0.787250     0.317620     0.317620    Uiso  0.012670 C
   C1438      1.0     0.777050     0.308070     0.308070    Uiso  0.012670 C
   C1439      1.0     0.749510     0.280000     0.280000    Uiso  0.012670 C
   C1440      1.0     0.757980     0.289650     0.289650    Uiso  0.012670 C
   O858       1.0     0.820860     0.330630     0.330630    Uiso  0.012670 O
   Fe187      1.0     0.325740     0.492850     0.855660    Uiso  0.012670 Fe
   C1441      1.0     0.357230     0.522980     0.762560    Uiso  0.012670 C
   C1442      1.0     0.372660     0.516460     0.738220    Uiso  0.012670 C
   C1443      1.0     0.419180     0.489080     0.672570    Uiso  0.012670 C
   C1444      1.0     0.403030     0.499380     0.694550    Uiso  0.012670 C
   C1445      1.0     0.317620     0.577500     0.787250    Uiso  0.012670 C
   C1446      1.0     0.308070     0.606800     0.777050    Uiso  0.012670 C
   C1447      1.0     0.280000     0.690490     0.749510    Uiso  0.012670 C
   C1448      1.0     0.289650     0.662720     0.757980    Uiso  0.012670 C
   O859       1.0     0.330630     0.517870     0.820860    Uiso  0.012670 O
   Fe188      1.0     0.325740     0.855660     0.492850    Uiso  0.012670 Fe
   C1449      1.0     0.357230     0.762560     0.522980    Uiso  0.012670 C
   C1450      1.0     0.372660     0.738220     0.516460    Uiso  0.012670 C
   C1451      1.0     0.419180     0.672570     0.489080    Uiso  0.012670 C
   C1452      1.0     0.403030     0.694550     0.499380    Uiso  0.012670 C
   C1453      1.0     0.317620     0.787250     0.577500    Uiso  0.012670 C
   C1454      1.0     0.308070     0.777050     0.606800    Uiso  0.012670 C
   C1455      1.0     0.280000     0.749510     0.690490    Uiso  0.012670 C
   C1456      1.0     0.289650     0.757980     0.662720    Uiso  0.012670 C
   O860       1.0     0.330630     0.820860     0.517870    Uiso  0.012670 O
   Fe189      1.0     0.325740     0.492850     0.325740    Uiso  0.012670 Fe
   C1457      1.0     0.357230     0.522980     0.357230    Uiso  0.012670 C
   C1458      1.0     0.372660     0.516460     0.372660    Uiso  0.012670 C
   C1459      1.0     0.419180     0.489080     0.419180    Uiso  0.012670 C
   C1460      1.0     0.403030     0.499380     0.403030    Uiso  0.012670 C
   C1461      1.0     0.317620     0.577500     0.317620    Uiso  0.012670 C
   C1462      1.0     0.308070     0.606800     0.308070    Uiso  0.012670 C
   C1463      1.0     0.280000     0.690490     0.280000    Uiso  0.012670 C
   C1464      1.0     0.289650     0.662720     0.289650    Uiso  0.012670 C
   O861       1.0     0.330630     0.517870     0.330630    Uiso  0.012670 O
   Fe190      1.0     0.325740     0.855660     0.325740    Uiso  0.012670 Fe
   C1465      1.0     0.357230     0.762560     0.357230    Uiso  0.012670 C
   C1466      1.0     0.372660     0.738220     0.372660    Uiso  0.012670 C
   C1467      1.0     0.419180     0.672570     0.419180    Uiso  0.012670 C
   C1468      1.0     0.403030     0.694550     0.403030    Uiso  0.012670 C
   C1469      1.0     0.317620     0.787250     0.317620    Uiso  0.012670 C
   C1470      1.0     0.308070     0.777050     0.308070    Uiso  0.012670 C
   C1471      1.0     0.280000     0.749510     0.280000    Uiso  0.012670 C
   C1472      1.0     0.289650     0.757980     0.289650    Uiso  0.012670 C
   O862       1.0     0.330630     0.820860     0.330630    Uiso  0.012670 O
   Fe191      1.0     0.855660     0.325740     0.492850    Uiso  0.012670 Fe
   C1473      1.0     0.762560     0.357230     0.522980    Uiso  0.012670 C
   C1474      1.0     0.738220     0.372660     0.516460    Uiso  0.012670 C
   C1475      1.0     0.672570     0.419180     0.489080    Uiso  0.012670 C
   C1476      1.0     0.694550     0.403030     0.499380    Uiso  0.012670 C
   C1477      1.0     0.787250     0.317620     0.577500    Uiso  0.012670 C
   C1478      1.0     0.777050     0.308070     0.606800    Uiso  0.012670 C
   C1479      1.0     0.749510     0.280000     0.690490    Uiso  0.012670 C
   C1480      1.0     0.757980     0.289650     0.662720    Uiso  0.012670 C
   O863       1.0     0.820860     0.330630     0.517870    Uiso  0.012670 O
   Fe192      1.0     0.492850     0.325740     0.855660    Uiso  0.012670 Fe
   C1481      1.0     0.522980     0.357230     0.762560    Uiso  0.012670 C
   C1482      1.0     0.516460     0.372660     0.738220    Uiso  0.012670 C
   C1483      1.0     0.489080     0.419180     0.672570    Uiso  0.012670 C
   C1484      1.0     0.499380     0.403030     0.694550    Uiso  0.012670 C
   C1485      1.0     0.577500     0.317620     0.787250    Uiso  0.012670 C
   C1486      1.0     0.606800     0.308070     0.777050    Uiso  0.012670 C
   C1487      1.0     0.690490     0.280000     0.749510    Uiso  0.012670 C
   C1488      1.0     0.662720     0.289650     0.757980    Uiso  0.012670 C
   O864       1.0     0.517870     0.330630     0.820860    Uiso  0.012670 O
   Fe193      1.0     0.924260     0.924260     0.394340    Uiso  0.012670 Fe
   C1489      1.0     0.892770     0.892770     0.487440    Uiso  0.012670 C
   C1490      1.0     0.877340     0.877340     0.511780    Uiso  0.012670 C
   C1491      1.0     0.830820     0.830820     0.577430    Uiso  0.012670 C
   C1492      1.0     0.846970     0.846970     0.555450    Uiso  0.012670 C
   C1493      1.0     0.932380     0.932380     0.462750    Uiso  0.012670 C
   C1494      1.0     0.941930     0.941930     0.472950    Uiso  0.012670 C
   C1495      1.0     0.970000     0.970000     0.500490    Uiso  0.012670 C
   C1496      1.0     0.960350     0.960350     0.492020    Uiso  0.012670 C
   O865       1.0     0.919370     0.919370     0.429140    Uiso  0.012670 O
   Fe194      1.0     0.924260     0.924260     0.757150    Uiso  0.012670 Fe
   C1497      1.0     0.892770     0.892770     0.727020    Uiso  0.012670 C
   C1498      1.0     0.877340     0.877340     0.733540    Uiso  0.012670 C
   C1499      1.0     0.830820     0.830820     0.760920    Uiso  0.012670 C
   C1500      1.0     0.846970     0.846970     0.750620    Uiso  0.012670 C
   C1501      1.0     0.932380     0.932380     0.672500    Uiso  0.012670 C
   C1502      1.0     0.941930     0.941930     0.643200    Uiso  0.012670 C
   C1503      1.0     0.970000     0.970000     0.559510    Uiso  0.012670 C
   C1504      1.0     0.960350     0.960350     0.587280    Uiso  0.012670 C
   O866       1.0     0.919370     0.919370     0.732130    Uiso  0.012670 O
   Fe195      1.0     0.757150     0.394340     0.924260    Uiso  0.012670 Fe
   C1505      1.0     0.727020     0.487440     0.892770    Uiso  0.012670 C
   C1506      1.0     0.733540     0.511780     0.877340    Uiso  0.012670 C
   C1507      1.0     0.760920     0.577430     0.830820    Uiso  0.012670 C
   C1508      1.0     0.750620     0.555450     0.846970    Uiso  0.012670 C
   C1509      1.0     0.672500     0.462750     0.932380    Uiso  0.012670 C
   C1510      1.0     0.643200     0.472950     0.941930    Uiso  0.012670 C
   C1511      1.0     0.559510     0.500490     0.970000    Uiso  0.012670 C
   C1512      1.0     0.587280     0.492020     0.960350    Uiso  0.012670 C
   O867       1.0     0.732130     0.429140     0.919370    Uiso  0.012670 O
   Fe196      1.0     0.394340     0.757150     0.924260    Uiso  0.012670 Fe
   C1513      1.0     0.487440     0.727020     0.892770    Uiso  0.012670 C
   C1514      1.0     0.511780     0.733540     0.877340    Uiso  0.012670 C
   C1515      1.0     0.577430     0.760920     0.830820    Uiso  0.012670 C
   C1516      1.0     0.555450     0.750620     0.846970    Uiso  0.012670 C
   C1517      1.0     0.462750     0.672500     0.932380    Uiso  0.012670 C
   C1518      1.0     0.472950     0.643200     0.941930    Uiso  0.012670 C
   C1519      1.0     0.500490     0.559510     0.970000    Uiso  0.012670 C
   C1520      1.0     0.492020     0.587280     0.960350    Uiso  0.012670 C
   O868       1.0     0.429140     0.732130     0.919370    Uiso  0.012670 O
   Fe197      1.0     0.757150     0.924260     0.394340    Uiso  0.012670 Fe
   C1521      1.0     0.727020     0.892770     0.487440    Uiso  0.012670 C
   C1522      1.0     0.733540     0.877340     0.511780    Uiso  0.012670 C
   C1523      1.0     0.760920     0.830820     0.577430    Uiso  0.012670 C
   C1524      1.0     0.750620     0.846970     0.555450    Uiso  0.012670 C
   C1525      1.0     0.672500     0.932380     0.462750    Uiso  0.012670 C
   C1526      1.0     0.643200     0.941930     0.472950    Uiso  0.012670 C
   C1527      1.0     0.559510     0.970000     0.500490    Uiso  0.012670 C
   C1528      1.0     0.587280     0.960350     0.492020    Uiso  0.012670 C
   O869       1.0     0.732130     0.919370     0.429140    Uiso  0.012670 O
   Fe198      1.0     0.394340     0.924260     0.757150    Uiso  0.012670 Fe
   C1529      1.0     0.487440     0.892770     0.727020    Uiso  0.012670 C
   C1530      1.0     0.511780     0.877340     0.733540    Uiso  0.012670 C
   C1531      1.0     0.577430     0.830820     0.760920    Uiso  0.012670 C
   C1532      1.0     0.555450     0.846970     0.750620    Uiso  0.012670 C
   C1533      1.0     0.462750     0.932380     0.672500    Uiso  0.012670 C
   C1534      1.0     0.472950     0.941930     0.643200    Uiso  0.012670 C
   C1535      1.0     0.500490     0.970000     0.559510    Uiso  0.012670 C
   C1536      1.0     0.492020     0.960350     0.587280    Uiso  0.012670 C
   O870       1.0     0.429140     0.919370     0.732130    Uiso  0.012670 O
   Fe199      1.0     0.924260     0.757150     0.924260    Uiso  0.012670 Fe
   C1537      1.0     0.892770     0.727020     0.892770    Uiso  0.012670 C
   C1538      1.0     0.877340     0.733540     0.877340    Uiso  0.012670 C
   C1539      1.0     0.830820     0.760920     0.830820    Uiso  0.012670 C
   C1540      1.0     0.846970     0.750620     0.846970    Uiso  0.012670 C
   C1541      1.0     0.932380     0.672500     0.932380    Uiso  0.012670 C
   C1542      1.0     0.941930     0.643200     0.941930    Uiso  0.012670 C
   C1543      1.0     0.970000     0.559510     0.970000    Uiso  0.012670 C
   C1544      1.0     0.960350     0.587280     0.960350    Uiso  0.012670 C
   O871       1.0     0.919370     0.732130     0.919370    Uiso  0.012670 O
   Fe200      1.0     0.924260     0.394340     0.924260    Uiso  0.012670 Fe
   C1545      1.0     0.892770     0.487440     0.892770    Uiso  0.012670 C
   C1546      1.0     0.877340     0.511780     0.877340    Uiso  0.012670 C
   C1547      1.0     0.830820     0.577430     0.830820    Uiso  0.012670 C
   C1548      1.0     0.846970     0.555450     0.846970    Uiso  0.012670 C
   C1549      1.0     0.932380     0.462750     0.932380    Uiso  0.012670 C
   C1550      1.0     0.941930     0.472950     0.941930    Uiso  0.012670 C
   C1551      1.0     0.970000     0.500490     0.970000    Uiso  0.012670 C
   C1552      1.0     0.960350     0.492020     0.960350    Uiso  0.012670 C
   O872       1.0     0.919370     0.429140     0.919370    Uiso  0.012670 O
   Fe201      1.0     0.924260     0.757150     0.394340    Uiso  0.012670 Fe
   C1553      1.0     0.892770     0.727020     0.487440    Uiso  0.012670 C
   C1554      1.0     0.877340     0.733540     0.511780    Uiso  0.012670 C
   C1555      1.0     0.830820     0.760920     0.577430    Uiso  0.012670 C
   C1556      1.0     0.846970     0.750620     0.555450    Uiso  0.012670 C
   C1557      1.0     0.932380     0.672500     0.462750    Uiso  0.012670 C
   C1558      1.0     0.941930     0.643200     0.472950    Uiso  0.012670 C
   C1559      1.0     0.970000     0.559510     0.500490    Uiso  0.012670 C
   C1560      1.0     0.960350     0.587280     0.492020    Uiso  0.012670 C
   O873       1.0     0.919370     0.732130     0.429140    Uiso  0.012670 O
   Fe202      1.0     0.924260     0.394340     0.757150    Uiso  0.012670 Fe
   C1561      1.0     0.892770     0.487440     0.727020    Uiso  0.012670 C
   C1562      1.0     0.877340     0.511780     0.733540    Uiso  0.012670 C
   C1563      1.0     0.830820     0.577430     0.760920    Uiso  0.012670 C
   C1564      1.0     0.846970     0.555450     0.750620    Uiso  0.012670 C
   C1565      1.0     0.932380     0.462750     0.672500    Uiso  0.012670 C
   C1566      1.0     0.941930     0.472950     0.643200    Uiso  0.012670 C
   C1567      1.0     0.970000     0.500490     0.559510    Uiso  0.012670 C
   C1568      1.0     0.960350     0.492020     0.587280    Uiso  0.012670 C
   O874       1.0     0.919370     0.429140     0.732130    Uiso  0.012670 O
   Fe203      1.0     0.394340     0.924260     0.924260    Uiso  0.012670 Fe
   C1569      1.0     0.487440     0.892770     0.892770    Uiso  0.012670 C
   C1570      1.0     0.511780     0.877340     0.877340    Uiso  0.012670 C
   C1571      1.0     0.577430     0.830820     0.830820    Uiso  0.012670 C
   C1572      1.0     0.555450     0.846970     0.846970    Uiso  0.012670 C
   C1573      1.0     0.462750     0.932380     0.932380    Uiso  0.012670 C
   C1574      1.0     0.472950     0.941930     0.941930    Uiso  0.012670 C
   C1575      1.0     0.500490     0.970000     0.970000    Uiso  0.012670 C
   C1576      1.0     0.492020     0.960350     0.960350    Uiso  0.012670 C
   O875       1.0     0.429140     0.919370     0.919370    Uiso  0.012670 O
   Fe204      1.0     0.757150     0.924260     0.924260    Uiso  0.012670 Fe
   C1577      1.0     0.727020     0.892770     0.892770    Uiso  0.012670 C
   C1578      1.0     0.733540     0.877340     0.877340    Uiso  0.012670 C
   C1579      1.0     0.760920     0.830820     0.830820    Uiso  0.012670 C
   C1580      1.0     0.750620     0.846970     0.846970    Uiso  0.012670 C
   C1581      1.0     0.672500     0.932380     0.932380    Uiso  0.012670 C
   C1582      1.0     0.643200     0.941930     0.941930    Uiso  0.012670 C
   C1583      1.0     0.559510     0.970000     0.970000    Uiso  0.012670 C
   C1584      1.0     0.587280     0.960350     0.960350    Uiso  0.012670 C
   O876       1.0     0.732130     0.919370     0.919370    Uiso  0.012670 O
   C1585      1.0     0.442800     0.442800     0.512290    Uiso  0.012670 C
   C1586      1.0     0.441880     0.441880     0.535550    Uiso  0.012670 C
   C1587      1.0     0.442800     0.442800     0.602110    Uiso  0.012670 C
   C1588      1.0     0.441880     0.441880     0.580690    Uiso  0.012670 C
   C1589      1.0     0.512290     0.602110     0.442800    Uiso  0.012670 C
   C1590      1.0     0.535550     0.580690     0.441880    Uiso  0.012670 C
   C1591      1.0     0.602110     0.512290     0.442800    Uiso  0.012670 C
   C1592      1.0     0.580690     0.535550     0.441880    Uiso  0.012670 C
   C1593      1.0     0.512290     0.442800     0.442800    Uiso  0.012670 C
   C1594      1.0     0.535550     0.441880     0.441880    Uiso  0.012670 C
   C1595      1.0     0.602110     0.442800     0.442800    Uiso  0.012670 C
   C1596      1.0     0.580690     0.441880     0.441880    Uiso  0.012670 C
   C1597      1.0     0.442800     0.512290     0.602110    Uiso  0.012670 C
   C1598      1.0     0.441880     0.535550     0.580690    Uiso  0.012670 C
   C1599      1.0     0.442800     0.602110     0.512290    Uiso  0.012670 C
   C1600      1.0     0.441880     0.580690     0.535550    Uiso  0.012670 C
   C1601      1.0     0.442800     0.512290     0.442800    Uiso  0.012670 C
   C1602      1.0     0.441880     0.535550     0.441880    Uiso  0.012670 C
   C1603      1.0     0.442800     0.602110     0.442800    Uiso  0.012670 C
   C1604      1.0     0.441880     0.580690     0.441880    Uiso  0.012670 C
   C1605      1.0     0.602110     0.442800     0.512290    Uiso  0.012670 C
   C1606      1.0     0.580690     0.441880     0.535550    Uiso  0.012670 C
   C1607      1.0     0.512290     0.442800     0.602110    Uiso  0.012670 C
   C1608      1.0     0.535550     0.441880     0.580690    Uiso  0.012670 C
   C1609      1.0     0.807200     0.807200     0.647890    Uiso  0.012670 C
   C1610      1.0     0.808120     0.808120     0.669310    Uiso  0.012670 C
   C1611      1.0     0.807200     0.807200     0.737710    Uiso  0.012670 C
   C1612      1.0     0.808120     0.808120     0.714450    Uiso  0.012670 C
   C1613      1.0     0.737710     0.647890     0.807200    Uiso  0.012670 C
   C1614      1.0     0.714450     0.669310     0.808120    Uiso  0.012670 C
   C1615      1.0     0.647890     0.737710     0.807200    Uiso  0.012670 C
   C1616      1.0     0.669310     0.714450     0.808120    Uiso  0.012670 C
   C1617      1.0     0.737710     0.807200     0.647890    Uiso  0.012670 C
   C1618      1.0     0.714450     0.808120     0.669310    Uiso  0.012670 C
   C1619      1.0     0.647890     0.807200     0.737710    Uiso  0.012670 C
   C1620      1.0     0.669310     0.808120     0.714450    Uiso  0.012670 C
   C1621      1.0     0.807200     0.737710     0.807200    Uiso  0.012670 C
   C1622      1.0     0.808120     0.714450     0.808120    Uiso  0.012670 C
   C1623      1.0     0.807200     0.647890     0.807200    Uiso  0.012670 C
   C1624      1.0     0.808120     0.669310     0.808120    Uiso  0.012670 C
   C1625      1.0     0.807200     0.737710     0.647890    Uiso  0.012670 C
   C1626      1.0     0.808120     0.714450     0.669310    Uiso  0.012670 C
   C1627      1.0     0.807200     0.647890     0.737710    Uiso  0.012670 C
   C1628      1.0     0.808120     0.669310     0.714450    Uiso  0.012670 C
   C1629      1.0     0.647890     0.807200     0.807200    Uiso  0.012670 C
   C1630      1.0     0.669310     0.808120     0.808120    Uiso  0.012670 C
   C1631      1.0     0.737710     0.807200     0.807200    Uiso  0.012670 C
   C1632      1.0     0.714450     0.808120     0.808120    Uiso  0.012670 C
   O877       1.0     0.454140     0.454140     0.454140    Uiso  0.012670 O
   O878       1.0     0.454140     0.454140     0.637590    Uiso  0.012670 O
   O879       1.0     0.454140     0.637590     0.454140    Uiso  0.012670 O
   O880       1.0     0.637590     0.454140     0.454140    Uiso  0.012670 O
   O881       1.0     0.795860     0.795860     0.612410    Uiso  0.012670 O
   O882       1.0     0.795860     0.795860     0.795860    Uiso  0.012670 O
   O883       1.0     0.795860     0.612410     0.795860    Uiso  0.012670 O
   O884       1.0     0.612410     0.795860     0.795860    Uiso  0.012670 O
