data_pb
_audit_creation_date              2017-10-16
_audit_creation_method
;
Olex2 1.2-beta
(compiled 2017.08.10 svn.r3458 for OlexSys, GUI svn.r5381)
;
_shelxl_version_number            2013-2
_publ_contact_author_address      ?
_publ_contact_author_email        ?
_publ_contact_author_id_orcid     ?
_publ_contact_author_name         ''
_publ_contact_author_phone        ?
_publ_section_references
;
Burla, M.C., Caliandro, R., Camalli, M., Carrozzini, B., Cascarano, G.L.,
 De Caro, L., Giacovazzo, C., Polidori, G., Siliqi, D., Spagna, R.
 (2007). J. Appl. Cryst. 40, 609-613.

Dolomanov, O.V., Bourhis, L.J., Gildea, R.J, Howard, J.A.K. & Puschmann, H.
 (2009), J. Appl. Cryst. 42, 339-341.

Sheldrick, G.M. (2015). Acta Cryst. C71, 3-8.
;
_chemical_name_common             ?
_chemical_name_systematic
;
 ? 
;
_chemical_formula_moiety          'C22 H17 N O8 Pb2 S'
_chemical_formula_sum             'C22 H17 N O8 Pb2 S'
_chemical_formula_weight          869.80
_chemical_melting_point           ?
loop_
  _atom_type_symbol
  _atom_type_description
  _atom_type_scat_dispersion_real
  _atom_type_scat_dispersion_imag
  _atom_type_scat_source
 'C' 'C' 0.0033 0.0016 'International Tables Vol C Tables 4.2.6.8 and 6.1.1.4'
 'H' 'H' 0.0000 0.0000 'International Tables Vol C Tables 4.2.6.8 and 6.1.1.4'
 'N' 'N' 0.0061 0.0033 'International Tables Vol C Tables 4.2.6.8 and 6.1.1.4'
 'O' 'O' 0.0106 0.0060 'International Tables Vol C Tables 4.2.6.8 and 6.1.1.4'
 'Pb' 'Pb' -3.3944 10.1111
 'International Tables Vol C Tables 4.2.6.8 and 6.1.1.4'
 'S' 'S' 0.1246 0.1234 'International Tables Vol C Tables 4.2.6.8 and 6.1.1.4'

_shelx_space_group_comment
;
The symmetry employed for this shelxl refinement is uniquely defined
by the following loop, which should always be used as a source of
symmetry information in preference to the above space-group names.
They are only intended as comments.
;
_space_group_crystal_system       'monoclinic'
_space_group_IT_number            14
_space_group_name_H-M_alt         'P 1 21/c 1'
_space_group_name_Hall            '-P 2ybc'
loop_
  _space_group_symop_operation_xyz
 'x, y, z'
 '-x, y+1/2, -z+1/2'
 '-x, -y, -z'
 'x, -y-1/2, z-1/2'

_cell_length_a                    15.9761(4)
_cell_length_b                    9.5952(2)
_cell_length_c                    14.6620(4)
_cell_angle_alpha                 90
_cell_angle_beta                  95.110(2)
_cell_angle_gamma                 90
_cell_volume                      2238.67(9)
_cell_formula_units_Z             4
_cell_measurement_reflns_used     3981
_cell_measurement_temperature     293(2)
_cell_measurement_theta_max       28.2210
_cell_measurement_theta_min       3.6400
_shelx_estimated_absorpt_T_max    ?
_shelx_estimated_absorpt_T_min    ?
_exptl_absorpt_coefficient_mu     15.165
_exptl_absorpt_correction_T_max   ?
_exptl_absorpt_correction_T_min   ?
_exptl_absorpt_correction_type    ?
_exptl_absorpt_process_details    ?
_exptl_crystal_colour             ?
_exptl_crystal_density_diffrn     2.581
_exptl_crystal_density_meas       ?
_exptl_crystal_density_method     'not measured'
_exptl_crystal_description        block
_exptl_crystal_F_000              1600
_exptl_crystal_size_max           ?
_exptl_crystal_size_mid           ?
_exptl_crystal_size_min           ?
_exptl_special_details
;
 ? 
;
_exptl_transmission_factor_max    ?
_exptl_transmission_factor_min    ?
_diffrn_reflns_av_R_equivalents   0.0240
_diffrn_reflns_av_unetI/netI      0.0387
_diffrn_reflns_Laue_measured_fraction_full 0.972
_diffrn_reflns_Laue_measured_fraction_max 0.997
_diffrn_reflns_limit_h_max        19
_diffrn_reflns_limit_h_min        -18
_diffrn_reflns_limit_k_max        11
_diffrn_reflns_limit_k_min        -6
_diffrn_reflns_limit_l_max        16
_diffrn_reflns_limit_l_min        -17
_diffrn_reflns_number             7836
_diffrn_reflns_point_group_measured_fraction_full 0.972
_diffrn_reflns_point_group_measured_fraction_max 0.997
_diffrn_reflns_theta_full         25.242
_diffrn_reflns_theta_max          25.010
_diffrn_reflns_theta_min          3.326
_diffrn_ambient_temperature       293(2)
_diffrn_detector_area_resol_mean  ?
_diffrn_measured_fraction_theta_full 0.972
_diffrn_measured_fraction_theta_max 0.997
_diffrn_measurement_device_type   'SuperNova, Single source at offset, Eos'
_diffrn_measurement_method        '\w scans'
_diffrn_radiation_type            MoK\a
_diffrn_radiation_wavelength      0.71073
_diffrn_source                    ?
_reflns_Friedel_coverage          0.000
_reflns_Friedel_fraction_full     .
_reflns_Friedel_fraction_max      .
_reflns_number_gt                 3404
_reflns_number_total              3938
_reflns_special_details
;
 Reflections were merged by SHELXL according to the crystal
 class for the calculation of statistics and refinement.
 
 _reflns_Friedel_fraction is defined as the number of unique
 Friedel pairs measured divided by the number that would be
 possible theoretically, ignoring centric projections and
 systematic absences.
;
_reflns_threshold_expression      'I > 2\s(I)'
_computing_cell_refinement        ?
_computing_data_collection        ?
_computing_data_reduction         ?
_computing_molecular_graphics     'Olex2 (Dolomanov et al., 2009)'
_computing_publication_material   'Olex2 (Dolomanov et al., 2009)'
_computing_structure_refinement   'ShelXL (Sheldrick, 2015)'
_computing_structure_solution     'SIR2004 (Burla et al., 2007)'
_refine_diff_density_max          1.264
_refine_diff_density_min          -1.592
_refine_diff_density_rms          0.148
_refine_ls_extinction_coef        .
_refine_ls_extinction_method      none
_refine_ls_goodness_of_fit_ref    1.103
_refine_ls_hydrogen_treatment     constr
_refine_ls_matrix_type            full
_refine_ls_number_parameters      307
_refine_ls_number_reflns          3938
_refine_ls_number_restraints      0
_refine_ls_R_factor_all           0.0419
_refine_ls_R_factor_gt            0.0334
_refine_ls_restrained_S_all       1.103
_refine_ls_shift/su_max           0.000
_refine_ls_shift/su_mean          0.000
_refine_ls_structure_factor_coef  Fsqd
_refine_ls_weighting_details
;
 w=1/[\s^2^(Fo^2^)+(0.0202P)^2^+8.5567P]
 where P=(Fo^2^+2Fc^2^)/3
;
_refine_ls_weighting_scheme       calc
_refine_ls_wR_factor_gt           0.0660
_refine_ls_wR_factor_ref          0.0693
_refine_special_details
;
 ?
;
_olex2_refinement_description
;
1. Fixed Uiso
 At 1.2 times of:
  All C(H) groups, All C(H,H) groups, All O(H) groups
2.a Secondary CH2 refined with riding coordinates:
 C8(H8A,H8B), C16(H16A,H16B)
2.b Aromatic/amide H refined with riding coordinates:
 C3(H3), C4(H4), C6(H6), C7(H7), C11(H11), C12(H12), C14(H14), C15(H15),
 C18(H18), C19(H19), C21(H21), C22(H22), O8(H8)
;
_atom_sites_solution_hydrogens    geom
_atom_sites_solution_primary      direct
_atom_sites_solution_secondary    ?
loop_
  _atom_site_label
  _atom_site_type_symbol
  _atom_site_fract_x
  _atom_site_fract_y
  _atom_site_fract_z
  _atom_site_U_iso_or_equiv
  _atom_site_adp_type
  _atom_site_occupancy
  _atom_site_site_symmetry_order
  _atom_site_calc_flag
  _atom_site_refinement_flags_posn
  _atom_site_refinement_flags_adp
  _atom_site_refinement_flags_occupancy
  _atom_site_disorder_assembly
  _atom_site_disorder_group
 C1 C -0.3684(5) 0.0259(9) -0.0025(5) 0.0332(19) Uani 1 1 d . . . . .
 C2 C -0.2773(4) 0.0454(8) 0.0268(5) 0.0261(16) Uani 1 1 d . . . . .
 C3 C -0.2320(5) -0.0605(8) 0.0715(5) 0.0338(18) Uani 1 1 d . . . . .
 H3 H -0.2588 -0.1435 0.0841 0.041 Uiso 1 1 calc R . . . .
 C4 C -0.1475(5) -0.0446(8) 0.0978(5) 0.037(2) Uani 1 1 d . . . . .
 H4 H -0.1175 -0.1174 0.1271 0.045 Uiso 1 1 calc R . . . .
 C5 C -0.1068(5) 0.0792(9) 0.0809(5) 0.0358(19) Uani 1 1 d . . . . .
 C6 C -0.1520(5) 0.1851(9) 0.0356(6) 0.042(2) Uani 1 1 d . . . . .
 H6 H -0.1252 0.2679 0.0227 0.050 Uiso 1 1 calc R . . . .
 C7 C -0.2369(5) 0.1690(8) 0.0092(5) 0.0374(19) Uani 1 1 d . . . . .
 H7 H -0.2669 0.2415 -0.0204 0.045 Uiso 1 1 calc R . . . .
 C8 C -0.0136(5) 0.0959(10) 0.1080(5) 0.044(2) Uani 1 1 d . . . . .
 H8A H 0.0164 0.0197 0.0822 0.053 Uiso 1 1 calc R . . . .
 H8B H 0.0056 0.1820 0.0822 0.053 Uiso 1 1 calc R . . . .
 C9 C -0.3400(5) -0.0896(8) 0.3763(5) 0.0334(18) Uani 1 1 d . . . . .
 C10 C -0.2653(5) -0.0162(8) 0.3465(5) 0.0301(17) Uani 1 1 d . . . . .
 C11 C -0.1860(5) -0.0731(8) 0.3661(5) 0.0370(19) Uani 1 1 d . . . . .
 H11 H -0.1801 -0.1556 0.3992 0.044 Uiso 1 1 calc R . . . .
 C12 C -0.1151(5) -0.0087(8) 0.3369(6) 0.039(2) Uani 1 1 d . . . . .
 H12 H -0.0627 -0.0503 0.3484 0.047 Uiso 1 1 calc R . . . .
 C13 C -0.1224(5) 0.1181(8) 0.2905(5) 0.0319(18) Uani 1 1 d . . . . .
 C14 C -0.2028(5) 0.1755(8) 0.2726(5) 0.0341(18) Uani 1 1 d . . . . .
 H14 H -0.2091 0.2596 0.2412 0.041 Uiso 1 1 calc R . . . .
 C15 C -0.2732(5) 0.1090(8) 0.3011(5) 0.0344(18) Uani 1 1 d . . . . .
 H15 H -0.3259 0.1494 0.2893 0.041 Uiso 1 1 calc R . . . .
 C16 C -0.0471(5) 0.1897(8) 0.2575(6) 0.0383(19) Uani 1 1 d . . . . .
 H16A H -0.0662 0.2664 0.2179 0.046 Uiso 1 1 calc R . . . .
 H16B H -0.0137 0.2286 0.3099 0.046 Uiso 1 1 calc R . . . .
 C17 C 0.0911(5) 0.0809(7) 0.2395(5) 0.0281(16) Uani 1 1 d . . . . .
 C18 C 0.1167(5) 0.0732(8) 0.3337(5) 0.0356(19) Uani 1 1 d . . . . .
 H18 H 0.0764 0.0806 0.3755 0.043 Uiso 1 1 calc R . . . .
 C19 C 0.1981(5) 0.0552(8) 0.3654(5) 0.0322(18) Uani 1 1 d . . . . .
 H19 H 0.2130 0.0539 0.4282 0.039 Uiso 1 1 calc R . . . .
 C20 C 0.2588(5) 0.0389(7) 0.3060(5) 0.0281(17) Uani 1 1 d . . . . .
 C21 C 0.2352(5) 0.0449(8) 0.2121(5) 0.0332(18) Uani 1 1 d . . . . .
 H21 H 0.2759 0.0352 0.1710 0.040 Uiso 1 1 calc R . . . .
 C22 C 0.1534(5) 0.0647(9) 0.1798(5) 0.0364(19) Uani 1 1 d . . . . .
 H22 H 0.1391 0.0675 0.1170 0.044 Uiso 1 1 calc R . . . .
 N1 N 0.0066(4) 0.0982(7) 0.2074(4) 0.0332(15) Uani 1 1 d . . . . .
 O1 O -0.4071(3) -0.0726(5) 0.0326(3) 0.0358(13) Uani 1 1 d . . . . .
 O2 O -0.4012(4) 0.1083(6) -0.0633(4) 0.0524(16) Uani 1 1 d . . . . .
 O3 O -0.3306(4) -0.1962(6) 0.4250(4) 0.0451(15) Uani 1 1 d . . . . .
 O4 O -0.4122(4) -0.0420(6) 0.3523(4) 0.0464(15) Uani 1 1 d . . . . .
 O5 O 0.3742(4) -0.0337(7) 0.4334(4) 0.0570(17) Uani 1 1 d . . . . .
 O6 O 0.4033(4) 0.1543(7) 0.3353(5) 0.067(2) Uani 1 1 d . . . . .
 O7 O 0.3971(4) -0.0815(7) 0.2790(5) 0.0630(19) Uani 1 1 d . . . . .
 O8 O 0.5019(5) 0.1521(7) 0.1604(4) 0.083(3) Uani 1 1 d . . . . .
 H8 H 0.5090 0.2017 0.2150 0.100 Uiso 1 1 calc R . . . .
 Pb1 Pb 0.51653(2) -0.07478(4) 0.18013(2) 0.04090(11) Uani 1 1 d . . . . .
 Pb2 Pb 0.47342(2) 0.29098(3) 0.03638(2) 0.03800(10) Uani 1 1 d . . . . .
 S1 S 0.36617(12) 0.0203(2) 0.34164(14) 0.0346(5) Uani 1 1 d . . . . .

loop_
  _atom_site_aniso_label
  _atom_site_aniso_U_11
  _atom_site_aniso_U_22
  _atom_site_aniso_U_33
  _atom_site_aniso_U_23
  _atom_site_aniso_U_13
  _atom_site_aniso_U_12
 C1 0.024(4) 0.050(5) 0.024(4) -0.009(4) -0.004(3) 0.008(4)
 C2 0.017(4) 0.039(4) 0.023(4) -0.001(3) 0.001(3) -0.004(3)
 C3 0.033(5) 0.027(4) 0.040(4) -0.001(3) -0.005(4) -0.004(4)
 C4 0.036(5) 0.032(4) 0.042(5) 0.000(4) -0.008(4) 0.006(4)
 C5 0.029(5) 0.047(5) 0.031(4) -0.003(4) -0.002(3) -0.002(4)
 C6 0.032(5) 0.048(5) 0.045(5) 0.008(4) 0.000(4) -0.012(4)
 C7 0.042(5) 0.033(4) 0.036(4) 0.007(4) -0.005(4) 0.005(4)
 C8 0.023(4) 0.069(6) 0.040(5) 0.000(4) -0.002(4) -0.005(4)
 C9 0.029(5) 0.041(5) 0.029(4) -0.007(4) -0.002(3) -0.006(4)
 C10 0.028(4) 0.033(4) 0.029(4) -0.002(3) 0.001(3) -0.002(4)
 C11 0.034(5) 0.032(4) 0.044(5) 0.011(4) -0.002(4) 0.000(4)
 C12 0.026(4) 0.036(4) 0.054(5) 0.000(4) -0.001(4) 0.008(4)
 C13 0.027(4) 0.032(4) 0.037(4) -0.002(3) 0.005(3) 0.002(4)
 C14 0.032(5) 0.026(4) 0.045(5) 0.004(4) 0.007(4) 0.006(4)
 C15 0.024(4) 0.031(4) 0.047(5) -0.004(4) -0.003(4) 0.002(4)
 C16 0.030(5) 0.035(4) 0.049(5) -0.006(4) -0.001(4) 0.000(4)
 C17 0.018(4) 0.029(4) 0.038(4) 0.000(3) 0.001(3) -0.002(3)
 C18 0.023(4) 0.051(5) 0.033(4) -0.007(4) 0.006(3) 0.000(4)
 C19 0.031(5) 0.040(4) 0.026(4) -0.003(3) 0.002(3) 0.000(4)
 C20 0.026(4) 0.025(4) 0.033(4) -0.004(3) 0.003(3) 0.001(3)
 C21 0.024(4) 0.042(4) 0.034(4) 0.003(4) 0.008(3) 0.002(4)
 C22 0.031(5) 0.053(5) 0.025(4) 0.006(4) 0.002(3) -0.005(4)
 N1 0.018(3) 0.042(4) 0.040(4) -0.005(3) 0.003(3) -0.001(3)
 O1 0.029(3) 0.043(3) 0.036(3) -0.008(3) 0.006(2) -0.009(3)
 O2 0.032(3) 0.067(4) 0.057(4) 0.020(3) -0.004(3) 0.004(3)
 O3 0.032(3) 0.052(4) 0.052(4) 0.017(3) 0.009(3) -0.004(3)
 O4 0.033(3) 0.057(4) 0.046(3) 0.012(3) -0.012(3) -0.008(3)
 O5 0.038(4) 0.076(4) 0.054(4) 0.020(3) -0.008(3) 0.003(3)
 O6 0.038(4) 0.050(4) 0.111(6) 0.010(4) -0.011(4) -0.011(3)
 O7 0.031(4) 0.077(5) 0.082(5) -0.030(4) 0.010(3) 0.014(3)
 O8 0.137(8) 0.050(4) 0.053(4) -0.019(3) -0.040(4) 0.050(5)
 Pb1 0.03490(19) 0.0591(2) 0.02764(16) -0.00043(14) -0.00306(13) 0.01802(17)
 Pb2 0.02558(17) 0.03659(17) 0.0505(2) -0.01392(15) -0.00379(14) 0.00417(14)
 S1 0.0240(10) 0.0392(11) 0.0399(11) -0.0021(9) -0.0013(9) 0.0027(9)

_geom_special_details
;
 All esds (except the esd in the dihedral angle between two l.s. planes)
 are estimated using the full covariance matrix.  The cell esds are taken
 into account individually in the estimation of esds in distances, angles
 and torsion angles; correlations between esds in cell parameters are only
 used when they are defined by crystal symmetry.  An approximate (isotropic)
 treatment of cell esds is used for estimating esds involving l.s. planes.
;
loop_
  _geom_bond_atom_site_label_1
  _geom_bond_atom_site_label_2
  _geom_bond_distance
  _geom_bond_site_symmetry_2
  _geom_bond_publ_flag
 C1 C2 1.493(10) . ?
 C1 O1 1.263(9) . ?
 C1 O2 1.269(9) . ?
 C2 C3 1.378(10) . ?
 C2 C7 1.386(10) . ?
 C3 H3 0.9300 . ?
 C3 C4 1.380(11) . ?
 C4 H4 0.9300 . ?
 C4 C5 1.386(11) . ?
 C5 C6 1.382(11) . ?
 C5 C8 1.514(10) . ?
 C6 H6 0.9300 . ?
 C6 C7 1.386(11) . ?
 C7 H7 0.9300 . ?
 C8 H8A 0.9700 . ?
 C8 H8B 0.9700 . ?
 C8 N1 1.464(10) . ?
 C9 C10 1.484(11) . ?
 C9 O3 1.250(9) . ?
 C9 O4 1.261(9) . ?
 C9 Pb2 2.825(8) 2_545 ?
 C10 C11 1.386(11) . ?
 C10 C15 1.374(10) . ?
 C11 H11 0.9300 . ?
 C11 C12 1.390(11) . ?
 C12 H12 0.9300 . ?
 C12 C13 1.394(10) . ?
 C13 C14 1.400(10) . ?
 C13 C16 1.502(11) . ?
 C14 H14 0.9300 . ?
 C14 C15 1.389(11) . ?
 C15 H15 0.9300 . ?
 C16 H16A 0.9700 . ?
 C16 H16B 0.9700 . ?
 C16 N1 1.470(10) . ?
 C17 C18 1.408(10) . ?
 C17 C22 1.391(10) . ?
 C17 N1 1.400(9) . ?
 C18 H18 0.9300 . ?
 C18 C19 1.352(11) . ?
 C19 H19 0.9300 . ?
 C19 C20 1.369(10) . ?
 C20 C21 1.395(10) . ?
 C20 S1 1.757(8) . ?
 C21 H21 0.9300 . ?
 C21 C22 1.363(11) . ?
 C22 H22 0.9300 . ?
 O1 Pb1 2.577(5) 1_455 ?
 O1 Pb2 2.519(5) 3 ?
 O2 Pb1 2.423(6) 3 ?
 O3 Pb2 2.402(6) 2_545 ?
 O4 Pb1 2.694(5) 1_455 ?
 O4 Pb2 2.544(6) 2_545 ?
 O5 S1 1.437(6) . ?
 O6 S1 1.422(6) . ?
 O7 Pb1 2.497(6) . ?
 O7 S1 1.458(6) . ?
 O8 H8 0.9300 . ?
 O8 Pb1 2.205(6) . ?
 O8 Pb2 2.268(6) . ?
 Pb1 O1 2.577(5) 1_655 ?
 Pb1 O2 2.423(6) 3 ?
 Pb1 O4 2.694(5) 1_655 ?
 Pb2 C9 2.825(8) 2 ?
 Pb2 O1 2.519(5) 3 ?
 Pb2 O3 2.402(6) 2 ?
 Pb2 O4 2.544(6) 2 ?

loop_
  _geom_angle_atom_site_label_1
  _geom_angle_atom_site_label_2
  _geom_angle_atom_site_label_3
  _geom_angle
  _geom_angle_site_symmetry_1
  _geom_angle_site_symmetry_3
  _geom_angle_publ_flag
 O1 C1 C2 118.4(7) . . ?
 O1 C1 O2 124.5(7) . . ?
 O2 C1 C2 117.0(7) . . ?
 C3 C2 C1 120.1(7) . . ?
 C3 C2 C7 119.1(7) . . ?
 C7 C2 C1 120.8(7) . . ?
 C2 C3 H3 119.7 . . ?
 C2 C3 C4 120.7(7) . . ?
 C4 C3 H3 119.7 . . ?
 C3 C4 H4 119.7 . . ?
 C3 C4 C5 120.5(7) . . ?
 C5 C4 H4 119.7 . . ?
 C4 C5 C8 120.6(7) . . ?
 C6 C5 C4 118.8(7) . . ?
 C6 C5 C8 120.5(7) . . ?
 C5 C6 H6 119.7 . . ?
 C5 C6 C7 120.7(8) . . ?
 C7 C6 H6 119.7 . . ?
 C2 C7 H7 119.9 . . ?
 C6 C7 C2 120.2(7) . . ?
 C6 C7 H7 119.9 . . ?
 C5 C8 H8A 109.0 . . ?
 C5 C8 H8B 109.0 . . ?
 H8A C8 H8B 107.8 . . ?
 N1 C8 C5 112.8(7) . . ?
 N1 C8 H8A 109.0 . . ?
 N1 C8 H8B 109.0 . . ?
 C10 C9 Pb2 169.9(5) . 2_545 ?
 O3 C9 C10 119.9(7) . . ?
 O3 C9 O4 121.1(8) . . ?
 O3 C9 Pb2 57.7(4) . 2_545 ?
 O4 C9 C10 119.1(7) . . ?
 O4 C9 Pb2 64.2(4) . 2_545 ?
 C11 C10 C9 119.8(7) . . ?
 C15 C10 C9 121.1(7) . . ?
 C15 C10 C11 119.1(7) . . ?
 C10 C11 H11 119.5 . . ?
 C10 C11 C12 121.1(7) . . ?
 C12 C11 H11 119.5 . . ?
 C11 C12 H12 119.9 . . ?
 C11 C12 C13 120.2(8) . . ?
 C13 C12 H12 119.9 . . ?
 C12 C13 C14 118.0(7) . . ?
 C12 C13 C16 121.5(7) . . ?
 C14 C13 C16 120.5(7) . . ?
 C13 C14 H14 119.5 . . ?
 C15 C14 C13 121.1(7) . . ?
 C15 C14 H14 119.5 . . ?
 C10 C15 C14 120.4(7) . . ?
 C10 C15 H15 119.8 . . ?
 C14 C15 H15 119.8 . . ?
 C13 C16 H16A 108.7 . . ?
 C13 C16 H16B 108.7 . . ?
 H16A C16 H16B 107.6 . . ?
 N1 C16 C13 114.1(6) . . ?
 N1 C16 H16A 108.7 . . ?
 N1 C16 H16B 108.7 . . ?
 C22 C17 C18 116.8(7) . . ?
 C22 C17 N1 121.6(7) . . ?
 N1 C17 C18 121.5(7) . . ?
 C17 C18 H18 119.0 . . ?
 C19 C18 C17 122.0(7) . . ?
 C19 C18 H18 119.0 . . ?
 C18 C19 H19 119.7 . . ?
 C18 C19 C20 120.6(7) . . ?
 C20 C19 H19 119.7 . . ?
 C19 C20 C21 118.6(7) . . ?
 C19 C20 S1 123.4(6) . . ?
 C21 C20 S1 117.9(5) . . ?
 C20 C21 H21 119.5 . . ?
 C22 C21 C20 121.0(7) . . ?
 C22 C21 H21 119.5 . . ?
 C17 C22 H22 119.5 . . ?
 C21 C22 C17 121.0(7) . . ?
 C21 C22 H22 119.5 . . ?
 C8 N1 C16 114.8(6) . . ?
 C17 N1 C8 117.0(6) . . ?
 C17 N1 C16 119.4(6) . . ?
 C1 O1 Pb1 129.3(4) . 1_455 ?
 C1 O1 Pb2 131.5(4) . 3 ?
 Pb2 O1 Pb1 96.68(18) 3 1_455 ?
 C1 O2 Pb1 130.8(5) . 3 ?
 C9 O3 Pb2 96.2(5) . 2_545 ?
 C9 O4 Pb1 121.2(5) . 1_455 ?
 C9 O4 Pb2 89.3(5) . 2_545 ?
 Pb2 O4 Pb1 111.9(2) 2_545 1_455 ?
 S1 O7 Pb1 131.9(4) . . ?
 Pb1 O8 H8 112.9 . . ?
 Pb1 O8 Pb2 134.2(3) . . ?
 Pb2 O8 H8 112.9 . . ?
 O1 Pb1 O4 126.42(17) 1_655 1_655 ?
 O2 Pb1 O1 78.16(19) 3 1_655 ?
 O2 Pb1 O4 155.4(2) 3 1_655 ?
 O2 Pb1 O7 80.5(2) 3 . ?
 O7 Pb1 O1 158.57(19) . 1_655 ?
 O7 Pb1 O4 74.9(2) . 1_655 ?
 O8 Pb1 O1 86.2(2) . 1_655 ?
 O8 Pb1 O2 88.5(2) . 3 ?
 O8 Pb1 O4 92.2(2) . 1_655 ?
 O8 Pb1 O7 91.4(3) . . ?
 O1 Pb2 C9 102.2(2) 3 2 ?
 O1 Pb2 O4 127.55(18) 3 2 ?
 O3 Pb2 C9 26.1(2) 2 2 ?
 O3 Pb2 O1 76.27(18) 2 3 ?
 O3 Pb2 O4 52.36(19) 2 2 ?
 O4 Pb2 C9 26.5(2) 2 2 ?
 O8 Pb2 C9 88.9(2) . 2 ?
 O8 Pb2 O1 83.1(2) . 3 ?
 O8 Pb2 O3 88.2(3) . 2 ?
 O8 Pb2 O4 85.3(2) . 2 ?
 O5 S1 C20 108.6(4) . . ?
 O5 S1 O7 110.0(4) . . ?
 O6 S1 C20 106.9(4) . . ?
 O6 S1 O5 112.6(4) . . ?
 O6 S1 O7 113.4(4) . . ?
 O7 S1 C20 104.9(4) . . ?

loop_
  _geom_hbond_atom_site_label_D
  _geom_hbond_atom_site_label_H
  _geom_hbond_atom_site_label_A
  _geom_hbond_distance_DH
  _geom_hbond_distance_HA
  _geom_hbond_distance_DA
  _geom_hbond_angle_DHA
  _geom_hbond_site_symmetry_A
 O8 H8 O6 0.93 2.59 3.128(11) 117.3 .
 O8 H8 O7 0.93 2.56 3.110(10) 118.2 2_655

loop_
  _geom_torsion_atom_site_label_1
  _geom_torsion_atom_site_label_2
  _geom_torsion_atom_site_label_3
  _geom_torsion_atom_site_label_4
  _geom_torsion
  _geom_torsion_site_symmetry_1
  _geom_torsion_site_symmetry_2
  _geom_torsion_site_symmetry_3
  _geom_torsion_site_symmetry_4
  _geom_torsion_publ_flag
 C1 C2 C3 C4 179.1(7) . . . . ?
 C1 C2 C7 C6 -179.1(7) . . . . ?
 C2 C1 O1 Pb1 88.4(8) . . . 1_455 ?
 C2 C1 O1 Pb2 -114.1(6) . . . 3 ?
 C2 C1 O2 Pb1 150.0(5) . . . 3 ?
 C2 C3 C4 C5 1.0(12) . . . . ?
 C3 C2 C7 C6 0.5(11) . . . . ?
 C3 C4 C5 C6 -1.4(12) . . . . ?
 C3 C4 C5 C8 -178.8(7) . . . . ?
 C4 C5 C6 C7 1.3(12) . . . . ?
 C4 C5 C8 N1 -68.0(10) . . . . ?
 C5 C6 C7 C2 -1.0(12) . . . . ?
 C5 C8 N1 C16 -46.9(10) . . . . ?
 C5 C8 N1 C17 165.7(7) . . . . ?
 C6 C5 C8 N1 114.6(9) . . . . ?
 C7 C2 C3 C4 -0.6(11) . . . . ?
 C8 C5 C6 C7 178.8(7) . . . . ?
 C9 C10 C11 C12 178.2(7) . . . . ?
 C9 C10 C15 C14 -179.2(7) . . . . ?
 C10 C9 O3 Pb2 168.5(6) . . . 2_545 ?
 C10 C9 O4 Pb1 75.4(8) . . . 1_455 ?
 C10 C9 O4 Pb2 -169.2(6) . . . 2_545 ?
 C10 C11 C12 C13 2.7(12) . . . . ?
 C11 C10 C15 C14 1.9(11) . . . . ?
 C11 C12 C13 C14 -1.6(11) . . . . ?
 C11 C12 C13 C16 -179.5(7) . . . . ?
 C12 C13 C14 C15 0.7(11) . . . . ?
 C12 C13 C16 N1 48.3(10) . . . . ?
 C13 C14 C15 C10 -0.9(12) . . . . ?
 C13 C16 N1 C8 92.1(8) . . . . ?
 C13 C16 N1 C17 -121.3(7) . . . . ?
 C14 C13 C16 N1 -129.5(8) . . . . ?
 C15 C10 C11 C12 -2.9(12) . . . . ?
 C16 C13 C14 C15 178.6(7) . . . . ?
 C17 C18 C19 C20 -2.3(12) . . . . ?
 C18 C17 C22 C21 -1.1(12) . . . . ?
 C18 C17 N1 C8 -176.2(7) . . . . ?
 C18 C17 N1 C16 38.0(10) . . . . ?
 C18 C19 C20 C21 1.6(11) . . . . ?
 C18 C19 C20 S1 178.0(6) . . . . ?
 C19 C20 C21 C22 -0.8(11) . . . . ?
 C19 C20 S1 O5 24.4(8) . . . . ?
 C19 C20 S1 O6 -97.3(7) . . . . ?
 C19 C20 S1 O7 141.9(7) . . . . ?
 C20 C21 C22 C17 0.6(12) . . . . ?
 C21 C20 S1 O5 -159.2(6) . . . . ?
 C21 C20 S1 O6 79.1(7) . . . . ?
 C21 C20 S1 O7 -41.6(7) . . . . ?
 C22 C17 C18 C19 2.0(12) . . . . ?
 C22 C17 N1 C8 1.1(11) . . . . ?
 C22 C17 N1 C16 -144.8(7) . . . . ?
 N1 C17 C18 C19 179.4(7) . . . . ?
 N1 C17 C22 C21 -178.5(7) . . . . ?
 O1 C1 C2 C3 16.6(10) . . . . ?
 O1 C1 C2 C7 -163.8(7) . . . . ?
 O1 C1 O2 Pb1 -28.0(11) . . . 3 ?
 O2 C1 C2 C3 -161.6(7) . . . . ?
 O2 C1 C2 C7 18.1(10) . . . . ?
 O2 C1 O1 Pb1 -93.6(8) . . . 1_455 ?
 O2 C1 O1 Pb2 63.9(10) . . . 3 ?
 O3 C9 C10 C11 5.7(11) . . . . ?
 O3 C9 C10 C15 -173.2(7) . . . . ?
 O3 C9 O4 Pb1 -105.2(7) . . . 1_455 ?
 O3 C9 O4 Pb2 10.2(7) . . . 2_545 ?
 O4 C9 C10 C11 -174.9(7) . . . . ?
 O4 C9 C10 C15 6.2(11) . . . . ?
 O4 C9 O3 Pb2 -10.9(8) . . . 2_545 ?
 Pb1 O7 S1 C20 126.6(5) . . . . ?
 Pb1 O7 S1 O5 -116.8(5) . . . . ?
 Pb1 O7 S1 O6 10.2(7) . . . . ?
 Pb2 C9 C10 C11 79(3) 2_545 . . . ?
 Pb2 C9 C10 C15 -100(3) 2_545 . . . ?
 Pb2 C9 O4 Pb1 -115.4(4) 2_545 . . 1_455 ?
 S1 C20 C21 C22 -177.4(6) . . . . ?

_shelx_res_file
;
TITL 3.8-C17 in P21/c #14
CELL 0.71073 15.976127 9.595224 14.661986 90 95.1098 90
ZERR 4 0.000368 0.000237 0.000353 0 0.0022 0
LATT 1
SYMM -X,0.5+Y,0.5-Z
SFAC C H N O Pb S
UNIT 88 68 4 32 8 4
EQIV $1 1-X,0.5+Y,0.5-Z

L.S. 40
PLAN  2
HTAB O8 O7_$1
HTAB O8 O6
BOND $h
MORE -1
CONF
fmap 2
acta
SHEL 999 0.8
OMIT -3 50.02
OMIT -6 0 2
OMIT -5 0 2
REM <olex2.extras>
REM <HklSrc "%.\\pb.hkl">
REM </olex2.extras>

WGHT    0.020200    8.556700
FVAR       1.81772
C1    1   -0.368441    0.025932   -0.002485    11.00000    0.02437    0.05047 =
         0.02372   -0.00885   -0.00358    0.00784
C2    1   -0.277299    0.045376    0.026802    11.00000    0.01671    0.03905 =
         0.02253   -0.00110    0.00144   -0.00416
C3    1   -0.232029   -0.060490    0.071494    11.00000    0.03269    0.02728 =
         0.03989   -0.00065   -0.00505   -0.00354
AFIX  43
H3    2   -0.258752   -0.143520    0.084055    11.00000   -1.20000
AFIX   0
C4    1   -0.147451   -0.044558    0.097799    11.00000    0.03618    0.03163 =
         0.04170   -0.00013   -0.00840    0.00600
AFIX  43
H4    2   -0.117514   -0.117406    0.127064    11.00000   -1.20000
AFIX   0
C5    1   -0.106778    0.079201    0.080934    11.00000    0.02873    0.04736 =
         0.03056   -0.00302   -0.00202   -0.00169
C6    1   -0.152039    0.185062    0.035627    11.00000    0.03216    0.04820 =
         0.04468    0.00755   -0.00038   -0.01226
AFIX  43
H6    2   -0.125237    0.267881    0.022748    11.00000   -1.20000
AFIX   0
C7    1   -0.236947    0.169045    0.009199    11.00000    0.04151    0.03348 =
         0.03555    0.00748   -0.00544    0.00523
AFIX  43
H7    2   -0.266937    0.241517   -0.020442    11.00000   -1.20000
AFIX   0
C8    1   -0.013631    0.095941    0.108049    11.00000    0.02269    0.06916 =
         0.03950    0.00036   -0.00227   -0.00475
AFIX  23
H8A   2    0.016385    0.019676    0.082245    11.00000   -1.20000
H8B   2    0.005602    0.182049    0.082247    11.00000   -1.20000
AFIX   0
C9    1   -0.340018   -0.089551    0.376279    11.00000    0.02900    0.04147 =
         0.02909   -0.00737   -0.00168   -0.00566
C10   1   -0.265326   -0.016194    0.346536    11.00000    0.02753    0.03311 =
         0.02946   -0.00230    0.00093   -0.00156
C11   1   -0.185984   -0.073068    0.366072    11.00000    0.03429    0.03197 =
         0.04390    0.01075   -0.00176   -0.00037
AFIX  43
H11   2   -0.180067   -0.155649    0.399224    11.00000   -1.20000
AFIX   0
C12   1   -0.115130   -0.008661    0.336912    11.00000    0.02616    0.03551 =
         0.05390   -0.00032   -0.00118    0.00810
AFIX  43
H12   2   -0.062695   -0.050337    0.348398    11.00000   -1.20000
AFIX   0
C13   1   -0.122387    0.118145    0.290525    11.00000    0.02717    0.03216 =
         0.03679   -0.00180    0.00457    0.00218
C14   1   -0.202767    0.175545    0.272641    11.00000    0.03239    0.02559 =
         0.04515    0.00449    0.00746    0.00569
AFIX  43
H14   2   -0.209129    0.259600    0.241206    11.00000   -1.20000
AFIX   0
C15   1   -0.273165    0.108984    0.301090    11.00000    0.02357    0.03143 =
         0.04707   -0.00371   -0.00267    0.00158
AFIX  43
H15   2   -0.325923    0.149419    0.289295    11.00000   -1.20000
AFIX   0
C16   1   -0.047096    0.189660    0.257521    11.00000    0.03014    0.03466 =
         0.04948   -0.00642   -0.00053   -0.00024
AFIX  23
H16A  2   -0.066216    0.266408    0.217935    11.00000   -1.20000
H16B  2   -0.013680    0.228594    0.309880    11.00000   -1.20000
AFIX   0
C17   1    0.091147    0.080905    0.239469    11.00000    0.01773    0.02878 =
         0.03765    0.00026    0.00090   -0.00194
C18   1    0.116731    0.073162    0.333714    11.00000    0.02321    0.05144 =
         0.03270   -0.00691    0.00628    0.00022
AFIX  43
H18   2    0.076418    0.080617    0.375467    11.00000   -1.20000
AFIX   0
C19   1    0.198112    0.055221    0.365415    11.00000    0.03080    0.03999 =
         0.02577   -0.00295    0.00246   -0.00004
AFIX  43
H19   2    0.213004    0.053927    0.428190    11.00000   -1.20000
AFIX   0
C20   1    0.258786    0.038943    0.305978    11.00000    0.02567    0.02541 =
         0.03339   -0.00441    0.00320    0.00119
C21   1    0.235206    0.044890    0.212106    11.00000    0.02419    0.04190 =
         0.03443    0.00313    0.00766    0.00160
AFIX  43
H21   2    0.275902    0.035179    0.170976    11.00000   -1.20000
AFIX   0
C22   1    0.153425    0.064718    0.179800    11.00000    0.03127    0.05254 =
         0.02539    0.00556    0.00227   -0.00504
AFIX  43
H22   2    0.139053    0.067464    0.116950    11.00000   -1.20000
AFIX   0
N1    3    0.006624    0.098173    0.207397    11.00000    0.01767    0.04250 =
         0.03953   -0.00482    0.00293   -0.00061
O1    4   -0.407101   -0.072574    0.032556    11.00000    0.02890    0.04332 =
         0.03578   -0.00832    0.00633   -0.00944
O2    4   -0.401182    0.108338   -0.063315    11.00000    0.03178    0.06744 =
         0.05653    0.01990   -0.00403    0.00369
O3    4   -0.330636   -0.196242    0.425045    11.00000    0.03214    0.05208 =
         0.05200    0.01686    0.00855   -0.00356
O4    4   -0.412196   -0.041981    0.352318    11.00000    0.03312    0.05685 =
         0.04638    0.01152   -0.01170   -0.00835
O5    4    0.374248   -0.033659    0.433411    11.00000    0.03836    0.07616 =
         0.05444    0.01970   -0.00769    0.00252
O6    4    0.403280    0.154280    0.335316    11.00000    0.03825    0.04974 =
         0.11129    0.00975   -0.01122   -0.01075
O7    4    0.397147   -0.081513    0.278990    11.00000    0.03080    0.07702 =
         0.08213   -0.03048    0.00968    0.01386
O8    4    0.501931    0.152064    0.160377    11.00000    0.13744    0.05032 =
         0.05254   -0.01901   -0.03954    0.05023
AFIX  43
H8    2    0.509042    0.201738    0.214983    11.00000   -1.20000
AFIX   0
PB1   5    0.516527   -0.074783    0.180128    11.00000    0.03490    0.05912 =
         0.02764   -0.00043   -0.00306    0.01802
PB2   5    0.473421    0.290975    0.036384    11.00000    0.02558    0.03659 =
         0.05054   -0.01392   -0.00379    0.00417
S1    6    0.366167    0.020318    0.341641    11.00000    0.02398    0.03920 =
         0.03987   -0.00209   -0.00134    0.00273
HKLF 4

REM  3.8-C17 in P21/c #14
REM R1 =  0.0334 for    3404 Fo > 4sig(Fo)  and  0.0419 for all    3938 data
REM    307 parameters refined using      0 restraints

END

WGHT      0.0202      8.5401

REM Highest difference peak  1.264,  deepest hole -1.592,  1-sigma level  0.148
Q1    1   0.4879  0.3015  0.1012  11.00000  0.05    1.26
Q2    1   0.4985 -0.1008  0.1189  11.00000  0.05    1.13
;
_shelx_res_checksum               48663
_shelx_hkl_file
;
   3   0   0 712543. 9741.26   1
   3   0   0 703283. 10269.9   3
   4   0   0 390490. 6298.70   1
   4   0   0 391025. 6948.50   3
  -4   0   0 378530. 6506.40   3
  -5   0   0 281471. 5499.70   3
   5   0   0 285808. 5948.99   3
   5   0   0 272147. 5202.44   1
  -6   0   0 268642. 5723.19   3
   6   0   0 273914. 5476.47   1
   6   0   0 280754. 6251.59   3
  -7   0   0 230002. 5276.94   3
   7   0   0 231866. 5095.85   1
  -8   0   0 421774. 8113.13   3
   8   0   0 411204. 7846.21   1
   9   0   0 90019.8 3171.29   1
  -9   0   0 89759.8 3318.57   3
  10   0   0 42246.5 2204.76   1
 -10   0   0 47436.8 2405.78   3
  11   0   0 2854.17 638.087   1
 -11   0   0 4152.76 870.466   3
  12   0   0 616.520 429.216   1
 -12   0   0 1400.78 624.290   3
  13   0   0 5093.71 851.541   1
 -13   0   0 8959.98 1172.28   3
  14   0   0 22780.3 1766.43   1
 -14   0   0 24501.0 1983.03   3
  15   0   0 39034.7 2415.01   1
 -15   0   0 45433.0 2727.98   3
 -16   0   0 42650.8 2711.94   3
  16   0   0 43620.9 2593.80   1
 -17   0   0 51484.9 3050.92   3
  17   0   0 49603.6 2871.14   1
  18   0   0 42152.2 2679.66   1
  19   0   0 54337.1 3115.69   1
   2   1   0 99434.3 1842.72   3
   3   1   0 106492. 2293.64   3
  -3   1   0 102988. 2118.32   1
  -3  -1   0 112916. 2325.07   3
   3  -1   0 108694. 2321.32   3
  -3   1   0 109386. 2318.99   3
   4  -1   0 152321. 3316.92   3
   4   1   0 145389. 3215.42   3
   4  -1   0 146802. 3039.71   1
  -4  -1   0 150129. 3225.86   3
  -4   1   0 150592. 3252.19   3
  -4   1   0 145016. 2927.60   1
  -5   1   0 140553. 3152.59   1
  -5   1   0 145139. 3462.16   3
   5  -1   0 135488. 3560.39   3
  -5  -1   0 138429. 3370.59   3
   5   1   0 138073. 3509.32   3
   5  -1   0 144328. 3260.00   1
   6  -1   0 238526. 4869.67   1
  -6  -1   0 219570. 4933.17   3
  -6   1   0 236916. 5070.52   3
   6  -1   0 231586. 5355.46   3
  -6   1   0 237209. 4725.77   1
  -7   1   0 263012. 5750.82   3
  -7   1   0 258306. 5336.88   1
  -7  -1   0 249921. 5591.87   3
   7  -1   0 258821. 5509.74   1
   8  -1   0 284126. 6130.96   1
  -8  -1   0 281312. 6256.30   3
  -8   1   0 287678. 6208.49   3
   8   1   0 285002. 5766.69   1
   9  -1   0 185418. 4948.03   1
  -9   1   0 201747. 5094.30   3
  -9  -1   0 194712. 5158.91   3
   9   1   0 187584. 4673.25   1
  10   1   0 185395. 4833.16   1
 -10   1   0 192371. 5167.39   3
  10  -1   0 191394. 5158.92   1
 -10  -1   0 191592. 5209.74   3
 -11  -1   0 142438. 4553.65   3
  11   1   0 140701. 4231.96   1
 -11   1   0 142670. 4483.56   3
  11  -1   0 139469. 4484.62   1
  12  -1   0 135013. 4504.60   1
 -12   1   0 136995. 4460.16   3
  12   1   0 134677. 4235.07   1
 -12  -1   0 135888. 4539.51   3
  13  -1   0 128752. 4494.54   1
 -13  -1   0 132511. 4594.18   3
  13   1   0 128297. 4260.47   1
 -13   1   0 129784. 4438.43   3
 -14  -1   0 74454.5 3484.14   3
  14  -1   0 78011.0 3523.99   1
  14   1   0 69991.0 3164.11   1
 -14   1   0 75020.4 3432.17   3
 -15  -1   0 54281.4 3035.76   3
 -15   1   0 51866.3 2894.45   3
  15  -1   0 52093.1 2903.53   1
  15   1   0 49926.7 2684.01   1
  16   1   0 27291.8 2021.74   1
 -16   1   0 28540.6 2216.10   3
  17   1   0 16379.3 1598.46   1
 -17   1   0 18320.9 1797.67   3
  18   1   0 5227.88 959.341   1
 -18   1   0 6854.55 1179.40   3
  19   1   0 2072.45 691.837   1
 -19   1   0 1363.61 700.561   3
   0   2   0 127126. 2136.48   2
   0  -2   0 125871. 2185.74   2
  -1   2   0 9656.71 476.185   2
   1   2   0 8911.76 409.400   2
  -1   2   0 10903.6 383.138   3
  -1  -2   0 9771.80 442.591   2
   2   2   0 62025.2 1297.75   2
  -2  -2   0 64504.0 1356.56   2
   2  -2   0 66254.4 1335.13   3
  -2   2   0 64491.6 1323.90   3
   3   2   0 32826.7 1093.31   3
  -3   2   0 36134.5 1073.38   3
   3  -2   0 33447.5 1035.96   3
  -3  -2   0 36022.4 1011.34   2
   4   2   0 67648.6 1907.82   3
  -4   2   0 77221.1 1932.23   3
   4  -2   0 70255.1 1851.74   3
  -5   2   0 23092.4 1081.97   1
  -5   2   0 25089.8 1189.09   3
   5  -2   0 25773.0 1209.34   3
   5   2   0 23446.6 1199.19   3
   6  -2   0 19115.6 1209.24   3
  -6   2   0 19710.3 1209.63   3
  -7   2   0 486.233 336.484   3
  -8   2   0 56980.2 2434.61   3
  -9   2   0 14794.5 1269.92   3
 -10   2   0 14476.4 1332.34   3
 -11   2   0 1367.59 554.799   3
  11   2   0 1285.68 452.591   1
 -12   2   0 12374.6 1362.15   3
  12   2   0 12233.1 1207.65   1
 -13   2   0 24495.5 1904.80   3
  13   2   0 22975.8 1727.02   1
  14   2   0 23053.2 1760.59   1
 -14   2   0 25924.4 2015.72   3
 -15   2   0 26873.7 2093.77   3
  15   2   0 25715.8 1923.97   1
 -16   2   0 21294.4 1919.11   3
  16   2   0 20350.8 1770.29   1
  17   2   0 9255.60 1252.76   1
 -17   2   0 8757.77 1315.39   3
  18   2   0 4083.10 832.606   1
 -18   2   0 5709.29 1085.20   3
 -19   2   0 1399.88 767.158   3
   0  -3   0 83.6760 94.9235   2
   0   3   0 65.6154 100.870   2
   1   3   0 24436.9 854.450   2
  -1   3   0 27884.9 979.908   2
  -1  -3   0 26172.2 917.128   2
   1  -3   0 25168.9 984.948   2
  -1   3   0 25112.3 723.179   3
  -2   3   0 26873.0 827.062   3
  -2   3   0 27971.1 1052.56   2
  -2  -3   0 26871.5 928.890   2
   2   3   0 27896.5 907.586   2
  -3   3   0 1792.35 251.971   3
   3   3   0 1303.41 222.065   2
   3  -3   0 2199.68 260.409   3
  -3  -3   0 1741.70 258.505   2
   4   3   0 5878.06 512.294   3
  -4  -3   0 6077.83 471.826   2
  -4   3   0 5456.16 476.675   3
   4  -3   0 5781.10 467.355   3
   5   3   0 1017.68 340.406   3
   5  -3   0 2737.06 411.200   3
  -5   3   0 3082.10 448.590   3
  -5  -3   0 1304.27 304.022   2
  -6  -3   0 6561.79 576.082   2
  -6   3   0 8349.44 857.673   3
  -7   3   0 3029.55 567.482   3
  -8   3   0 1164.07 631.071   3
  -9   3   0 53.6842 320.079   3
 -10   3   0-309.960 408.773   3
 -11   3   0-180.262 461.024   3
 -12   3   0 3926.86 806.980   3
  13   3   0 3644.36 667.982   1
 -13   3   0 3959.59 847.911   3
 -14   3   0 4852.47 927.579   3
  14   3   0 4721.05 819.381   1
 -15   3   0 10735.9 1322.41   3
  15   3   0 9341.26 1166.20   1
  16   3   0 12665.9 1393.65   1
 -16   3   0 12510.7 1486.22   3
  17   3   0 14045.0 1519.14   1
 -17   3   0 13294.9 1587.56   3
  18   3   0 8369.12 1212.60   1
 -18   3   0 13297.1 1641.56   3
 -19   3   0 5001.23 1103.29   3
   0   4   0 5329.08 457.882   2
   0  -4   0 5529.33 507.143   2
   1  -4   0 18271.2 950.651   2
   1   4   0 17680.8 809.604   2
  -1  -4   0 17372.2 870.931   2
  -1   4   0 17778.1 672.604   3
  -1   4   0 17870.2 871.832   2
  -2   4   0 2041.39 348.543   2
   2   4   0 1750.90 295.181   2
  -2  -4   0 1387.98 334.719   2
  -2   4   0 2160.81 283.742   3
  -3   4   0 887.296 286.020   2
  -3  -4   0 703.242 244.926   2
   3   4   0 907.852 241.461   2
  -4  -4   0 257.856 132.777   2
   4  -4   0 1094.97 284.120   3
  -4   4   0 1022.43 352.558   2
  -4   4   0 1105.77 280.107   3
   4   4   0 734.961 217.846   2
  -5  -4   0 1173.28 288.455   2
  -5   4   0 1370.88 284.887   3
   5  -4   0 1808.16 339.393   3
  -6   4   0 1372.00 435.512   3
  -7   4   0 1993.46 497.747   3
  -8   4   0 3859.61 670.082   3
  -9   4   0 5509.24 933.641   3
 -10   4   0 36526.2 2196.18   3
 -11   4   0 33932.3 2183.63   3
 -12   4   0 34269.6 2195.52   3
 -13   4   0 18931.2 1714.97   3
 -14   4   0 10336.8 1324.64   3
 -15   4   0 5760.67 1019.54   3
  15   4   0 5702.80 946.867   1
 -16   4   0 8133.06 1187.52   3
  16   4   0 6930.92 1080.35   1
  17   4   0 8663.53 1199.16   1
 -17   4   0 9727.52 1383.75   3
 -18   4   0 16086.9 1761.34   3
 -19   4   0 15954.1 1807.94   3
   0   5   0-93.4671 160.544   2
   1   5   0 43601.6 1498.48   2
  -1   5   0 45218.5 1260.27   3
  -1   5   0 43722.4 1575.70   2
   2   5   0 467.839 169.247   2
  -2   5   0 563.577 254.395   2
  -2   5   0 626.910 177.845   3
  -3   5   0 13444.5 727.400   3
   3   5   0 13959.1 793.998   2
  -3   5   0 14223.5 936.450   2
  -4   5   0 55948.4 2040.83   2
  -4   5   0 60231.7 1742.99   3
   4   5   0 57085.4 1728.38   2
  -5   5   0 41410.6 1821.70   2
  -5   5   0 42870.4 1577.59   3
  -6   5   0 39906.1 1883.59   2
  -6   5   0 38400.7 1603.87   3
  -7   5   0 44207.6 1888.44   3
  -8   5   0 63875.8 2454.80   3
  -9   5   0 67822.3 2745.58   3
 -10   5   0 37540.5 2125.89   3
 -11   5   0 32162.8 2086.16   3
 -12   5   0 34263.9 2200.63   3
 -13   5   0 28396.8 2075.19   3
 -14   5   0 19625.8 1756.94   3
 -15   5   0 17466.6 1727.58   3
 -16   5   0 9855.44 1339.84   3
  16   5   0 11449.9 1342.36   1
 -17   5   0 7474.82 1256.14   3
  17   5   0 6406.40 1082.15   1
 -18   5   0 3008.99 914.011   3
 -19   5   0 709.302 649.658   3
   0   6   0 78655.5 2321.73   2
   1   6   0 38987.2 1543.48   2
  -1   6   0 40280.1 1290.07   3
  -1   6   0 40580.8 1625.79   2
  -2   6   0 80904.4 2463.23   2
   2   6   0 75923.7 2221.44   2
  -2   6   0 80357.4 1971.37   3
  -3   6   0 65228.9 2264.48   2
  -3   6   0 66331.4 1824.61   3
   3   6   0 64813.6 2005.20   2
  -4   6   0 48094.4 1979.00   2
  -4   6   0 47510.6 1605.80   3
   4   6   0 47851.1 1715.41   2
   5   6   0 38428.6 1537.65   2
  -5   6   0 39018.6 1842.22   2
  -5   6   0 38418.6 1552.19   3
  -6   6   0 24770.9 1554.16   2
  -6   6   0 24222.7 1302.56   3
  -7   6   0 10127.1 939.921   3
  -7   6   0 8268.72 946.645   2
  -8   6   0 14043.3 1136.68   3
  -8   6   0 12914.5 1256.23   2
  -9   6   0 8102.30 942.870   3
  -9   6   0 7949.25 1053.74   2
 -10   6   0 21163.9 1618.82   3
 -10   6   0 22527.7 1782.12   2
 -11   6   0 4303.08 844.125   3
 -12   6   0 7607.35 1088.58   3
 -13   6   0 1235.42 562.755   3
 -14   6   0 309.488 483.831   3
 -15   6   0 1543.59 649.548   3
 -16   6   0 587.873 501.165   3
 -17   6   0-206.217 600.035   3
 -18   6   0 368.809 572.357   3
   0   7   0 62.3899 155.358   3
   0   7   0 167.491 226.000   2
  -1   7   0 5647.85 639.928   2
   1   7   0 6270.55 655.833   2
  -1   7   0 5786.46 503.626   3
  -2   7   0 3438.45 496.236   2
   2   7   0 3783.96 508.733   2
  -2   7   0 3665.98 418.442   3
   3   7   0 2480.31 436.884   2
  -3   7   0 2149.08 422.375   2
  -4   7   0 2961.54 542.456   2
   4   7   0 3672.14 531.078   2
  -4   7   0 3009.08 457.590   3
  -5   7   0 1896.08 480.451   2
  -5   7   0 1477.79 346.642   3
   5   7   0 1953.39 403.256   2
  -6   7   0 3742.37 676.130   2
  -6   7   0 3608.82 527.501   3
  -7   7   0 92.0594 379.079   2
  -7   7   0 1269.32 502.234   3
  -8   7   0 901.210 479.858   2
  -8   7   0 1904.22 526.212   3
  -9   7   0 5885.57 846.744   3
  -9   7   0 5805.25 919.536   2
 -10   7   0 2340.50 603.141   3
 -10   7   0 2407.01 711.851   2
 -11   7   0 1864.87 655.926   2
 -11   7   0 1438.10 495.777   3
 -12   7   0 747.702 506.865   2
 -12   7   0 382.819 416.027   3
 -13   7   0 978.267 468.557   3
 -13   7   0 1376.44 544.211   2
 -14   7   0 391.335 572.574   2
 -14   7   0 1133.26 570.304   3
 -15   7   0 774.976 676.833   2
 -15   7   0 910.370 575.554   3
 -16   7   0 143.370 624.604   3
 -16   7   0 420.103 644.672   2
 -17   7   0 321.965 526.037   3
 -18   7   0 257.272 550.310   3
   0   8   0 94457.6 2933.36   2
   0   8   0 91041.8 2326.19   3
  -1   8   0 48014.9 1614.54   3
  -1   8   0 48926.9 2085.23   2
   1   8   0 50715.1 2046.52   2
  -2   8   0 40072.9 1488.05   3
  -2   8   0 38651.6 1895.07   2
   2   8   0 42163.4 1847.41   2
  -3   8   0 62858.0 1983.40   3
  -3   8   0 60359.8 2450.58   2
   3   8   0 64625.3 2304.55   2
   4   8   0 42003.7 1847.30   2
  -4   8   0 41583.9 2060.97   2
  -4   8   0 42017.1 1662.18   3
  -5   8   0 21973.8 1253.74   3
   5   8   0 19665.7 1258.29   2
  -5   8   0 19830.0 1466.30   2
  -6   8   0 19768.8 1495.04   2
  -6   8   0 18338.1 1222.20   3
  -7   8   0 15961.0 1235.36   3
  -7   8   0 14515.3 1352.58   2
  -8   8   0 3352.91 755.029   2
  -8   8   0 2979.22 649.784   3
  -9   8   0 3875.00 737.554   3
  -9   8   0 2899.40 722.121   2
 -10   8   0 1030.47 496.324   2
 -10   8   0 1598.21 571.926   3
 -11   8   0 913.850 479.423   2
 -11   8   0 883.803 573.652   3
 -12   8   0 600.938 562.744   2
 -12   8   0 359.439 506.011   3
 -13   8   0 2168.92 764.287   2
 -14   8   0 4237.40 999.469   2
   0   9   0 551.756 254.567   3
   0   9   0 225.868 322.796   2
   1   9   0 275.262 279.950   2
  -1   9   0 267.931 301.002   2
   1   9   0 499.788 232.223   3
  -1   9   0-40.3406 230.749   3
  -2   9   0 2084.33 375.870   3
   2   9   0 1696.35 475.210   2
  -2   9   0 1764.46 458.743   2
  -3   9   0 5502.82 809.860   2
  -3   9   0 6747.73 665.615   3
   3   9   0 6011.94 759.734   2
   4   9   0 9107.39 912.291   2
  -4   9   0 9386.02 1031.22   2
   5   9   0 11923.8 1071.50   2
  -5   9   0 13483.1 1258.55   2
  -6   9   0 25412.9 1796.72   2
  -7   9   0 26752.5 1911.37   2
  -8   9   0 31807.0 2168.99   2
  -9   9   0 17783.1 1678.09   2
 -10   9   0 23775.2 2000.58   2
 -11   9   0 23435.9 2072.87   2
 -12   9   0 21190.1 2054.04   2
 -13   9   0 20685.8 2068.95   2
   0  10   0 17163.4 1351.94   2
   1  10   0 14290.6 1229.85   2
  -1  10   0 13269.9 1241.06   2
  -2  10   0 18691.1 1456.14   2
   2  10   0 21414.0 1485.27   2
  -3  10   0 6093.81 866.777   2
   3  10   0 7548.64 883.707   2
  -4  10   0 8042.93 1012.48   2
   4  10   0 6950.49 860.916   2
   5  10   0 12695.4 1142.69   2
  -5  10   0 11676.2 1281.41   2
  -6  10   0 9157.84 1156.79   2
  -7  10   0 4536.25 879.394   2
  -8  10   0 3951.76 855.877   2
  -9  10   0 678.955 525.498   2
 -10  10   0-111.705 527.473   2
 -11  10   0 564.779 573.261   2
   0  11   0 245.665 440.090   2
   1  11   0 389.593 377.515   2
  -1  11   0 161.700 414.597   2
   2  11   0 1997.50 566.185   2
  -2  11   0 1648.32 560.621   2
  -3  11   0 287.504 408.423   2
   3  11   0 1384.12 535.317   2
  -4  11   0 986.311 541.059   2
  -5  11   0 805.375 500.690   2
  -6  11   0 925.276 534.363   2
  -7  11   0 1809.56 649.695   2
  -8  11   0 4633.16 990.656   2
  -9  11   0 3049.21 873.356   2
   0  12   0 2284.00 601.375   2
  -1  12   0 2902.74 668.489   2
  -2  12   0 2252.04 671.629   2
  -3  12   0 2170.43 660.013   2
  -4  12   0 1042.26 577.634   2
  -5  12   0 1315.73 592.016   2
  -6  12   0 15.3188 486.586   2
  -3  13   0 276.387 443.752   2
  20   0  -1 421.087 635.780   1
  19   0  -1 120.401 513.236   1
  18   0  -1 191.929 469.147   1
  17   0  -1-156.397 468.580   1
  16   0  -1 47.3161 429.961   1
 -15   0   1-864.788 660.834   3
  15   0  -1 104.576 425.846   1
 -14   0   1 535.024 545.681   3
  14   0  -1 120.099 394.043   1
 -13   0   1 500.079 420.362   3
  13   0  -1 365.497 422.412   1
 -12   0   1 622.536 520.860   3
  12   0  -1 794.454 356.650   1
  11   0  -1-11.0379 341.687   1
 -11   0   1-163.059 379.385   3
  10   0  -1-267.392 317.536   1
 -10   0   1 726.730 471.833   3
  -9   0   1-126.720 306.781   3
   9   0  -1 136.164 308.508   1
  -8   0   1-93.1123 331.397   3
   8   0  -1-22.2703 288.881   1
  -7   0   1 117.251 249.386   3
   7   0  -1-11.3332 234.032   1
   6   0  -1-63.3111 235.233   1
   6   0  -1 12.0462 150.613   3
  -6   0   1 56.6204 220.214   3
   5   0  -1 19.2239 140.784   3
   5   0  -1-6.89009 195.937   1
  -5   0   1-4.78083 168.917   3
   4   0  -1 184.179 115.937   3
  -4   0   1 169.613 170.033   3
   4   0  -1 40.7238 145.706   1
   3   0  -1 92.4540 106.991   3
  -3   0   1 166.544 126.062   3
   3   0  -1 144.113 101.434   1
   3   0   1 379.064 123.204   1
  -3   0  -1 194.206 88.5389   1
   3   0   1 275.835 157.436   3
  -4   0  -1 71.1561 83.3859   1
  -4   0  -1 99.4902 173.506   3
   4   0   1 63.1384 118.598   1
   4   0   1 111.841 185.434   3
   5   0   1 63.5873 136.429   1
  -5   0  -1-40.9349 253.744   3
   5   0   1 51.9337 204.650   3
   6   0   1 346.320 232.443   1
  -6   0  -1-187.124 318.437   3
  -7   0  -1-7.34401 292.946   3
   7   0   1 196.236 211.693   1
   8   0   1 392.286 292.824   1
  -8   0  -1-59.8261 339.369   3
   9   0   1 335.246 302.260   1
  -9   0  -1 374.222 371.770   3
 -10   0  -1-89.8734 381.186   3
  10   0   1 487.694 376.556   1
 -11   0  -1-172.968 384.869   3
  11   0   1 152.889 286.708   1
 -12   0  -1 84.0322 427.832   3
  12   0   1 29.4087 329.102   1
  13   0   1-90.3843 313.788   1
 -13   0  -1 105.907 430.150   3
  14   0   1-36.5622 356.973   1
 -14   0  -1 417.183 527.495   3
 -15   0  -1-512.892 590.833   3
  15   0   1 243.349 401.086   1
  16   0   1 267.047 397.044   1
 -16   0  -1 22.0152 501.741   3
  17   0   1 938.458 591.560   1
 -17   0  -1 1065.74 703.902   3
 -18   0  -1-255.483 566.109   3
 -19   0  -1 233.667 601.085   3
  20   1  -1 9424.08 1330.82   1
  19   1  -1 14540.5 1615.71   1
  18   1  -1 14916.7 1596.53   1
  17  -1  -1 13787.5 1580.41   1
 -17   1   1 13218.8 1570.76   3
  17   1  -1 10600.4 1360.65   1
 -16   1   1 18816.0 1804.31   3
  16  -1  -1 17582.6 1767.78   1
  16   1  -1 13951.7 1514.76   1
  15   1  -1 39339.7 2420.10   1
 -15   1   1 40671.9 2552.00   3
  15  -1  -1 41817.2 2622.21   1
  14   1  -1 91725.0 3719.77   1
 -14   1   1 93276.6 3820.17   3
  14  -1  -1 92109.7 3853.53   1
  13  -1  -1 45361.4 2616.14   1
  13   1  -1 44689.8 2498.27   1
 -13   1   1 48045.5 2620.93   3
 -12   1   1 87055.9 3481.07   3
  12  -1  -1 87396.1 3595.89   1
  12   1  -1 84874.6 3364.79   1
 -11   1   1 112999. 3864.15   3
  11   1  -1 102237. 3665.31   1
  11  -1  -1 107654. 3933.03   1
  10  -1  -1 65532.4 2876.09   1
 -10   1   1 67714.5 2839.73   3
 -10  -1   1 63236.7 2818.69   3
  10   1  -1 65844.1 2717.86   1
   9  -1  -1 79881.6 3089.78   1
  -9   1   1 82170.3 3040.41   3
   9   1  -1 73993.4 2787.22   1
  -9  -1   1 75714.6 2976.09   3
   8  -1  -1 105608. 3519.13   1
  -8  -1   1 108217. 3445.73   3
  -8   1   1 111714. 3489.60   3
   8   1  -1 107030. 3214.24   1
  -7   1   1 93112.0 2976.65   3
   7  -1  -1 84540.4 2930.37   1
  -6   1   1 165316. 3951.15   1
  -6   1   1 170242. 4034.80   3
   6  -1  -1 170766. 4497.79   3
   5  -1  -1 113588. 3295.86   3
   5   1  -1 107656. 2646.33   3
  -5   1   1 104450. 2869.16   3
   5  -1  -1 104305. 2857.17   1
  -5   1   1 105988. 2827.04   1
   4  -1  -1 102591. 2841.13   3
  -4   1   1 100278. 2585.45   3
   4   1  -1 99299.3 2273.32   3
  -4   1   1 106557. 2567.76   1
   4  -1  -1 104081. 2580.46   1
  -3   1   1 38249.4 1292.19   3
   3  -1  -1 39230.4 1302.55   1
   3  -1  -1 36415.6 1384.45   3
  -3   1   1 38353.8 1250.75   1
  -2   1   1 10210.8 462.588   2
  -2   1   1 8031.96 467.685   3
   2  -1  -1 10266.1 559.495   3
   2   1   1 25128.9 1049.37   3
  -2  -1  -1 23450.8 921.612   3
   2  -1   1 25506.4 783.783   3
  -2   1  -1 26152.6 791.974   3
   3  -1   1 5940.57 442.651   3
  -3  -1  -1 5050.58 485.661   3
  -3   1  -1 6882.50 485.068   3
   3   1   1 6107.99 628.011   3
  -4   1  -1 1903.46 267.128   1
  -4  -1  -1 1210.51 305.975   3
  -4   1  -1 2761.02 427.522   3
   4  -1   1 1816.46 366.203   3
   4   1   1 1459.19 422.719   3
   5   1   1 36451.6 1833.25   3
  -5   1  -1 34909.0 1428.20   3
  -5  -1  -1 33801.9 1620.02   3
  -5   1  -1 33613.6 1241.31   1
   5  -1   1 34942.9 1525.32   3
  -6  -1  -1 102780. 3142.90   3
  -6   1  -1 103499. 2932.42   3
  -6   1  -1 100709. 2618.55   1
  -7   1  -1 124587. 3554.88   3
   7  -1   1 126703. 3323.08   1
  -7  -1  -1 127246. 3708.35   3
  -7   1  -1 123630. 3196.62   1
   7   1   1 123924. 3133.23   1
  -8   1  -1 13850.3 1163.26   3
   8   1   1 18001.1 1170.44   1
  -8  -1  -1 15872.6 1315.72   3
   8  -1   1 15790.0 1173.33   1
   9   1   1 19486.5 1298.11   1
   9  -1   1 17576.5 1330.78   1
  -9   1  -1 17566.4 1396.85   3
  -9  -1  -1 21447.7 1550.07   3
  10   1   1 11480.0 1055.54   1
  10  -1   1 9059.42 983.829   1
 -10  -1  -1 12053.4 1250.16   3
 -10   1  -1 9988.78 1102.29   3
 -11   1  -1 11484.1 1249.95   3
  11  -1   1 12482.6 1232.67   1
  11   1   1 10733.6 1079.72   1
 -11  -1  -1 12153.2 1293.62   3
 -12  -1  -1 11216.4 1244.82   3
  12  -1   1 14453.1 1378.95   1
 -12   1  -1 13104.6 1347.95   3
  12   1   1 11945.9 1186.44   1
 -13   1  -1 45211.9 2578.34   3
 -13  -1  -1 48174.5 2664.51   3
  13   1   1 42828.8 2327.19   1
 -14  -1  -1 39682.3 2511.15   3
  14   1   1 40610.5 2286.65   1
 -14   1  -1 38581.9 2450.22   3
  15   1   1 15833.5 1481.58   1
 -15   1  -1 15092.2 1584.43   3
 -15  -1  -1 15107.6 1583.31   3
 -16  -1  -1 16914.7 1712.60   3
 -16   1  -1 18144.0 1783.63   3
  16   1   1 17425.9 1562.23   1
  17   1   1 4259.18 867.445   1
 -17   1  -1 4185.03 931.957   3
  18   1   1 2611.47 718.417   1
 -18   1  -1 2650.07 896.892   3
 -19   1  -1 6631.72 1197.90   3
  19   2  -1 1580.67 642.403   1
 -19   2   1 1637.17 784.952   3
  18   2  -1 3736.66 797.949   1
 -18   2   1 4659.15 1031.07   3
  17   2  -1 2859.82 837.715   1
 -17   2   1 2806.79 790.510   3
 -16   2   1 1593.59 689.997   3
  16   2  -1 2871.15 782.352   1
 -15   2   1 158.862 459.315   3
  15   2  -1-259.570 465.847   1
  14   2  -1 353.374 365.507   1
 -14   2   1 1857.80 753.324   3
 -13   2   1 6344.05 987.220   3
  13   2  -1 5504.43 894.286   1
  12   2  -1 9544.02 1098.31   1
 -12   2   1 14092.6 1386.57   3
 -11   2   1 39558.8 2269.57   3
  11   2  -1 38100.5 2108.82   1
 -10   2   1 31121.2 1922.06   3
  -9   2   1 73974.1 2852.63   3
  -8   2   1 55530.2 2337.38   3
  -7   2   1 137843. 3758.10   3
  -6   2   1 116447. 3229.30   3
   6  -2  -1 117747. 3350.48   3
   5  -2  -1 105095. 2797.69   3
  -5   2   1 104995. 2808.31   3
  -5   2   1 97617.6 2556.26   1
   5   2  -1 97230.5 2449.98   3
  -4   2   1 99525.5 2441.48   1
   4  -2  -1 108448. 2477.48   3
  -4   2   1 104825. 2585.12   3
  -3   2   1 182958. 3320.85   2
  -3   2   1 189544. 3299.71   3
   3  -2  -1 179410. 3078.31   3
  -3  -2   1 181076. 2792.09   2
   2   2  -1 186669. 2680.62   2
   2  -2  -1 180527. 2756.11   3
  -2   2   1 189483. 3209.09   2
  -2  -2   1 187811. 2732.75   2
  -2   2   1 190090. 2875.94   3
  -1   2   1 516137. 7168.98   2
   1  -2  -1 529511. 7215.58   2
  -1  -2   1 513947. 6774.64   2
   1   2  -1 508485. 6696.19   2
   0  -2  -1 30375.7 946.139   2
   0   2   1 33937.0 942.623   2
   0   2  -1 31597.5 811.112   2
  -1  -2  -1 187680. 3042.07   2
   1   2   1 179666. 2986.60   2
  -1   2  -1 191913. 2864.92   3
  -2  -2  -1 72659.9 1604.97   2
  -2   2  -1 72886.8 1524.11   3
   2   2   1 73449.0 1630.13   3
   2   2   1 72536.1 1546.69   2
   2  -2   1 74750.0 1559.05   3
   3   2   1 54928.5 1657.64   3
  -3  -2  -1 56648.1 1455.40   2
  -3   2  -1 57213.3 1435.09   3
   3  -2   1 55857.5 1469.61   3
   4  -2   1 34953.9 1265.37   3
  -4  -2  -1 37337.5 1422.15   3
  -4  -2  -1 35741.1 1198.38   2
   4   2   1 38448.6 1552.69   3
  -4   2  -1 35921.5 1253.38   3
  -5   2  -1 35557.5 1296.54   1
  -5  -2  -1 38840.6 1625.72   3
   5  -2   1 35133.0 1431.34   3
  -5   2  -1 38561.0 1435.92   3
   5   2   1 37375.9 1760.71   3
  -6   2  -1 38598.7 1607.19   3
  -6   2  -1 35769.8 1399.27   1
  -6  -2  -1 32615.3 1665.87   3
  -7   2  -1 26906.6 1495.29   3
  -7  -2  -1 22910.7 1476.73   3
  -8  -2  -1 689.321 357.716   3
  -8   2  -1 583.229 431.104   3
  -9   2  -1 13856.9 1289.06   3
  -9  -2  -1 12775.8 1198.95   3
 -10  -2  -1 902.972 522.850   3
  10   2   1 1469.82 413.293   1
 -10   2  -1 2166.72 648.922   3
  11   2   1 3899.76 655.410   1
 -11  -2  -1 3899.80 821.111   3
 -11   2  -1 4658.39 861.925   3
 -12   2  -1 2727.51 742.044   3
  12   2   1 2956.28 604.425   1
 -12  -2  -1 3006.97 746.416   3
  13   2   1 1143.95 482.176   1
 -13   2  -1 1674.97 613.685   3
 -13  -2  -1 1153.26 625.219   3
 -14   2  -1 3371.74 868.258   3
 -14  -2  -1 2763.36 845.912   3
  14   2   1 1885.32 544.552   1
  15   2   1 583.439 459.670   1
 -15   2  -1 438.356 549.010   3
  16   2   1 5.66494 361.306   1
 -16   2  -1 551.285 663.073   3
 -17   2  -1-206.232 529.913   3
  17   2   1 626.387 467.302   1
 -18   2  -1-123.986 554.227   3
 -19   2  -1 892.134 653.177   3
  19   3  -1 5306.56 1064.35   1
 -19   3   1 6104.10 1140.95   3
  18   3  -1 11940.3 1484.27   1
 -18   3   1 12450.8 1580.83   3
  17   3  -1 16156.6 1665.57   1
 -17   3   1 17764.2 1778.16   3
 -16   3   1 23360.4 1980.91   3
  16   3  -1 21623.1 1865.72   1
 -15   3   1 14083.6 1483.55   3
  15   3  -1 12613.6 1382.64   1
  14   3  -1 6771.67 985.576   1
 -14   3   1 6792.67 1071.96   3
 -13   3   1 976.350 473.844   3
 -12   3   1 1547.10 566.959   3
 -11   3   1 790.381 457.473   3
 -10   3   1 2850.40 688.566   3
  -9   3   1 4900.19 813.235   3
  -8   3   1 5527.24 774.111   3
  -7   3   1 4914.30 681.081   3
  -6  -3   1 70237.0 1858.70   2
   6  -3  -1 69407.0 2223.22   3
  -6   3   1 72770.0 2366.13   3
  -5  -3   1 84608.3 1946.89   2
   5  -3  -1 80474.9 2160.78   3
  -5   3   1 90777.5 2402.34   3
  -4   3   1 91257.9 2186.19   3
   4  -3  -1 91078.0 2031.57   3
  -4   3   1 90762.3 2371.87   2
  -4  -3   1 91391.2 1899.08   2
   3  -3  -1 97660.2 1861.61   3
  -3   3   1 96445.4 1965.02   3
  -3   3   1 90736.2 2272.06   2
  -3  -3   1 94371.7 1869.77   2
   3   3  -1 90200.8 1775.62   2
  -2   3   1 95303.0 1692.32   3
   2  -3  -1 93407.5 2235.70   2
  -2  -3   1 93746.3 1845.97   2
  -2   3   1 92705.7 2172.27   2
   2   3  -1 91681.0 1759.34   2
   2  -3  -1 91084.2 1606.74   3
  -1   3   1 48087.7 1395.25   2
  -1  -3   1 46984.9 1225.60   2
   1  -3  -1 47147.0 1430.39   2
   1   3  -1 46631.1 1146.65   2
  -1   3   1 46815.7 939.968   3
   0   3  -1 72131.5 1583.19   2
   0  -3  -1 71054.0 1777.75   2
   0   3   1 70800.8 1705.67   2
  -1   3  -1 186411. 3019.72   3
  -1   3  -1 188313. 3257.24   2
   1   3   1 186506. 3253.21   2
  -1  -3  -1 188934. 3351.67   2
  -2   3  -1 90894.5 1856.27   3
  -2  -3  -1 93549.4 2074.25   2
   2   3   1 87574.9 1938.17   2
  -3  -3  -1 47515.3 1418.03   2
   3   3   1 45610.3 1318.60   2
  -3   3  -1 47201.2 1322.40   3
   3   3   1 46518.0 1404.18   3
   3  -3   1 45626.0 1331.86   3
  -4   3  -1 41990.5 1376.72   3
  -4  -3  -1 41188.1 1384.01   2
   4   3   1 42593.1 1531.06   3
   4  -3   1 42487.8 1390.89   3
   5   3   1 43119.1 1745.16   3
  -5  -3  -1 41852.2 1485.77   2
  -5   3  -1 44971.6 1557.66   3
  -6   3  -1 11378.9 854.128   3
  -7   3  -1 14506.8 1073.26   3
  -8   3  -1 4674.35 678.851   3
  -9   3  -1 4567.54 749.352   3
 -10   3  -1 625.797 358.762   3
 -11   3  -1 782.345 348.219   3
 -12   3  -1 8856.33 1116.13   3
 -13   3  -1 23245.2 1854.98   3
  13   3   1 22064.8 1620.02   1
  14   3   1 20684.2 1614.67   1
 -14   3  -1 22275.8 1883.43   3
  15   3   1 27730.8 1979.12   1
 -15   3  -1 24177.9 2041.26   3
 -16   3  -1 19368.0 1870.87   3
  16   3   1 18452.4 1625.58   1
 -17   3  -1 9434.80 1409.95   3
  17   3   1 6328.75 1000.28   1
 -18   3  -1 5772.74 1181.81   3
 -19   3  -1 12672.2 1644.30   3
 -19   4   1 929.981 660.626   3
  19   4  -1 855.569 596.549   1
 -18   4   1 3847.06 968.052   3
  18   4  -1 3478.36 825.981   1
 -17   4   1 8990.63 1334.54   3
  17   4  -1 8810.66 1266.96   1
  16   4  -1 16611.3 1653.69   1
 -16   4   1 17993.9 1765.96   3
  15   4  -1 29972.6 2132.99   1
 -15   4   1 34723.7 2352.56   3
 -14   4   1 24111.6 1937.79   3
 -13   4   1 41313.0 2434.58   3
 -12   4   1 85091.3 3412.27   3
 -11   4   1 14506.6 1349.80   3
 -10   4   1 25569.2 1720.88   3
  -9   4   1 31700.5 1831.87   3
  -8   4   1 55963.5 2339.94   3
  -7   4   1 32805.9 1644.83   3
  -7  -4   1 29040.4 1251.69   2
  -6   4   1 26552.6 1323.92   3
  -6   4   1 25279.6 1422.92   2
  -6  -4   1 26421.7 1116.78   2
  -5   4   1 29291.8 1434.20   2
  -5  -4   1 27674.2 1098.16   2
  -5   4   1 29679.5 1261.60   3
   5  -4  -1 28980.6 1156.95   3
  -4   4   1 10507.0 808.958   2
   4  -4  -1 11801.4 644.285   3
   4   4  -1 10813.1 591.872   2
  -4  -4   1 11349.6 661.258   2
  -4   4   1 12148.0 702.259   3
   3   4  -1 3211.22 313.665   2
  -3   4   1 3364.37 327.895   3
  -3   4   1 2769.61 395.991   2
  -3  -4   1 3385.43 357.349   2
   3  -4  -1 3273.18 295.380   3
   2   4  -1 21281.6 830.194   2
  -2  -4   1 21509.0 909.107   2
  -2   4   1 21948.7 1048.52   2
  -2   4   1 21214.0 720.037   3
  -1   4   1 71415.7 1386.49   3
   1   4  -1 69498.4 1684.26   2
  -1   4   1 70285.0 1944.15   2
  -1  -4   1 69900.7 1820.22   2
   0   4  -1 70026.7 1754.98   2
   0   4   1 71911.8 1900.89   2
   0  -4  -1 71761.7 2003.38   2
  -1   4  -1 202827. 3669.01   2
  -1  -4  -1 203163. 3842.81   2
   1   4   1 199932. 3678.57   2
  -1   4  -1 199916. 3368.43   3
  -2   4  -1 208809. 3890.55   2
  -2   4  -1 206069. 3534.32   3
   2   4   1 209727. 3758.86   2
  -2  -4  -1 207948. 3913.31   2
  -3   4  -1 208573. 4128.64   2
   3   4   1 212432. 3858.48   2
  -3   4  -1 215846. 3735.85   3
   3   4   1 214366. 3786.43   3
  -3  -4  -1 211001. 4008.19   2
   4   4   1 250475. 4375.94   2
  -4   4  -1 259658. 4416.89   3
   4  -4   1 240871. 4379.28   3
   4   4   1 252474. 4579.75   3
  -5   4  -1 167737. 3528.67   3
  -6   4  -1 247692. 4861.33   3
  -7   4  -1 268790. 5378.99   3
  -8   4  -1 176188. 4366.24   3
  -9   4  -1 294181. 6372.76   3
 -10   4  -1 167597. 4783.91   3
 -11   4  -1 162979. 4931.68   3
 -12   4  -1 166562. 5194.48   3
 -13   4  -1 95320.5 3954.71   3
 -14   4  -1 35033.5 2397.44   3
  15   4   1 25117.4 1828.58   1
 -15   4  -1 24919.9 2074.11   3
 -16   4  -1 10463.8 1419.74   3
  16   4   1 10079.4 1204.67   1
 -17   4  -1 5097.12 1088.35   3
 -18   4  -1 2127.24 821.983   3
 -19   4  -1 1695.55 825.792   3
 -19   5   1 3483.63 933.344   3
 -18   5   1 4367.95 1037.64   3
  18   5  -1 4063.74 929.113   1
 -17   5   1 2470.24 823.625   3
  17   5  -1 91.2383 483.424   1
 -16   5   1 3019.01 824.457   3
 -15   5   1 2215.75 727.468   3
 -14   5   1 5722.88 986.510   3
 -13   5   1 2400.97 706.803   3
 -12   5   1 180.222 383.286   3
 -11   5   1 937.149 459.598   3
 -10   5   1 17447.2 1427.09   3
  -9   5   1 23157.6 1667.57   2
  -9   5   1 22344.0 1530.18   3
  -8   5   1 43120.3 2202.03   2
  -8   5   1 46051.4 2098.21   3
  -7   5   1 41377.7 2030.87   2
  -7   5   1 40497.6 1821.98   3
  -6   5   1 51116.9 2138.92   2
  -6   5   1 51942.7 1903.39   3
  -5   5   1 56890.6 2169.10   2
  -5   5   1 63140.8 1919.34   3
  -5  -5   1 57739.7 1825.67   2
   5  -5  -1 58839.5 1736.93   3
  -4  -5   1 92434.0 2368.68   2
   4   5  -1 93199.1 2186.52   2
  -4   5   1 90920.4 2228.68   3
  -4   5   1 93557.5 2715.08   2
  -3  -5   1 88342.5 2300.60   2
   3   5  -1 86746.1 2091.22   2
  -3   5   1 88129.7 1999.35   3
  -3   5   1 88416.6 2549.24   2
  -2   5   1 259915. 4892.08   2
  -2  -5   1 251819. 4673.71   2
   2   5  -1 254434. 4395.09   2
  -2   5   1 262126. 4022.68   3
  -1   5   1 231193. 4454.64   2
  -1   5   1 232550. 3590.40   3
  -1  -5   1 227304. 4388.28   2
   1   5  -1 227906. 4087.23   2
   0   5  -1 276080. 4783.09   2
   0   5   1 280418. 5003.91   2
  -1   5  -1 217782. 3767.50   3
   1   5   1 215632. 4138.17   2
  -1   5  -1 220818. 4139.20   2
   2   5   1 150459. 3233.40   2
  -2   5  -1 152585. 2973.80   3
  -2   5  -1 149084. 3306.67   2
  -3   5  -1 121377. 2621.28   3
   3   5   1 120139. 2793.06   2
  -3   5  -1 118610. 2986.97   2
  -4   5  -1 88707.5 2651.22   2
   4   5   1 85354.3 2319.69   3
   4   5   1 88473.8 2336.47   2
  -4   5  -1 91294.8 2286.59   3
  -5   5  -1 82693.7 2299.94   3
  -5   5  -1 79295.6 2626.41   2
  -6   5  -1 42549.5 1715.30   3
  -7   5  -1 26190.0 1425.06   3
  -8   5  -1 11538.2 1044.52   3
  -9   5  -1 480.635 322.257   3
 -10   5  -1 831.746 483.303   3
 -11   5  -1 3177.11 693.217   3
 -12   5  -1 5459.37 916.245   3
 -13   5  -1 10041.8 1260.18   3
 -14   5  -1 20734.9 1873.53   3
 -15   5  -1 29540.6 2282.72   3
  16   5   1 33653.1 2241.47   1
 -16   5  -1 40356.8 2734.32   3
 -17   5  -1 41885.6 2872.01   3
 -18   5  -1 26418.2 2277.36   3
 -19   6   1 3868.17 1063.89   3
 -18   6   1 1825.77 813.669   3
 -17   6   1 1854.04 785.784   2
 -17   6   1 2392.76 888.413   3
 -16   6   1 1193.88 668.205   2
 -16   6   1 403.554 529.046   3
 -15   6   1 1014.63 604.847   3
 -15   6   1 311.985 523.378   2
 -14   6   1 2598.82 707.785   3
 -14   6   1 3787.13 979.657   2
 -13   6   1 3023.20 878.340   2
 -13   6   1 4112.29 828.331   3
 -12   6   1 9568.46 1288.27   2
 -12   6   1 7718.75 1054.36   3
 -11   6   1 28323.2 2112.67   2
 -11   6   1 25587.4 1818.17   3
 -10   6   1 52688.5 2770.96   2
 -10   6   1 49904.7 2502.27   3
  -9   6   1 40723.3 2135.69   3
  -9   6   1 45467.0 2428.51   2
  -8   6   1 58423.6 2394.74   3
  -8   6   1 59446.8 2679.33   2
  -7   6   1 45283.7 1939.45   3
  -7   6   1 43020.5 2150.90   2
  -6   6   1 75912.3 2756.95   2
  -6   6   1 75483.5 2384.17   3
   5   6  -1 76696.3 2135.51   2
  -5   6   1 75097.5 2651.53   2
  -5   6   1 78891.2 2241.11   3
   4   6  -1 54233.2 1742.02   2
  -4   6   1 58031.2 1734.92   3
  -4   6   1 53566.0 2132.71   2
  -3   6   1 56550.5 2129.02   2
  -3   6   1 57554.1 1620.40   3
   3   6  -1 58049.5 1804.85   2
  -2   6   1 73720.2 1789.11   3
   2   6  -1 78510.3 2145.94   2
  -2   6   1 74455.8 2389.67   2
  -1   6   1 60022.1 1498.70   3
   1   6  -1 61335.7 1901.95   2
  -1   6   1 59573.3 2055.66   2
   0   6  -1 24112.3 1176.57   2
   0   6   1 25293.3 1270.86   2
  -1   6  -1 6211.27 628.687   2
   1   6   1 5538.24 605.012   2
  -1   6  -1 6983.42 569.495   3
  -2   6  -1 6317.67 555.769   3
  -2   6  -1 5860.86 662.193   2
   2   6   1 5923.75 629.050   2
  -3   6  -1 2802.37 440.861   3
  -3   6  -1 1962.93 425.431   2
   3   6   1 1534.47 381.564   2
  -4   6  -1 2400.75 508.140   2
  -4   6  -1 2286.02 433.599   3
   4   6   1 924.825 353.100   2
  -5   6  -1 4532.77 746.287   2
  -5   6  -1 6247.19 682.498   3
   5   6   1 4396.94 579.503   2
  -6   6  -1 22296.0 1299.70   3
  -6   6  -1 21795.5 1482.55   2
  -7   6  -1 47575.8 2324.82   2
  -7   6  -1 46951.9 2010.31   3
  -8   6  -1 41587.2 2012.05   3
  -9   6  -1 48834.1 2319.84   3
 -10   6  -1 40021.5 2215.92   3
 -11   6  -1 31873.6 2136.46   3
 -12   6  -1 17450.5 1683.47   3
 -13   6  -1 23331.0 1985.44   3
 -14   6  -1 29458.6 2241.55   3
 -15   6  -1 25625.1 2174.16   3
 -16   6  -1 21786.8 2032.87   3
 -17   6  -1 13153.9 1661.67   3
 -18   6  -1 6470.46 1250.47   3
 -16   7   1 34714.6 2703.47   2
 -16   7   1 38980.9 2670.57   3
 -15   7   1 50426.0 2931.77   3
 -15   7   1 45637.4 3106.92   2
 -14   7   1 51199.6 2894.73   3
 -14   7   1 49237.1 3145.46   2
 -13   7   1 42563.7 2562.66   3
 -13   7   1 43235.6 2849.43   2
 -12   7   1 58784.7 3240.79   2
 -12   7   1 53478.1 2823.63   3
 -11   7   1 45084.7 2526.16   3
 -11   7   1 49567.8 2854.42   2
 -10   7   1 48337.3 2509.20   3
 -10   7   1 49407.0 2751.03   2
  -9   7   1 44266.3 2487.41   2
  -9   7   1 48035.5 2375.65   3
  -8   7   1 36919.5 2156.09   2
  -8   7   1 38704.6 1973.20   3
  -7   7   1 18793.5 1285.86   3
  -7   7   1 15927.8 1356.91   2
  -6   7   1 847.129 451.410   2
  -6   7   1 802.857 363.829   3
  -5   7   1 331.740 209.943   3
  -5   7   1 251.397 361.297   2
   5   7  -1 399.196 222.291   2
  -4   7   1 629.710 250.757   3
   4   7  -1 600.368 296.691   2
  -4   7   1 358.142 364.095   2
   3   7  -1 1915.27 379.224   2
  -3   7   1 1620.02 407.415   2
  -3   7   1 1823.19 336.814   3
  -2   7   1 929.909 227.115   3
   2   7  -1 1004.65 282.699   2
  -2   7   1 881.381 308.929   2
  -1   7   1 18114.1 837.318   3
   1   7  -1 18128.1 1085.17   2
  -1   7   1 17463.4 1181.68   2
   0   7   1 18595.6 1184.40   2
   0   7   1 19365.1 845.805   3
   0   7  -1 20428.2 1169.58   2
   1   7   1 39255.2 1720.90   2
  -1   7  -1 39398.9 1709.83   2
  -1   7  -1 40302.5 1463.91   3
  -2   7  -1 76428.9 2494.03   2
  -2   7  -1 75231.1 2120.92   3
   2   7   1 72797.6 2404.56   2
   3   7   1 55592.3 2059.62   2
  -3   7  -1 54418.5 1808.01   3
  -3   7  -1 56304.0 2188.47   2
  -4   7  -1 58256.5 2309.14   2
   4   7   1 59199.2 2169.54   2
  -4   7  -1 58616.6 1958.48   3
  -5   7  -1 47318.4 1823.67   3
  -5   7  -1 45301.6 2092.03   2
   5   7   1 49075.4 1941.96   2
  -6   7  -1 36991.1 1691.47   3
  -6   7  -1 36902.7 1943.71   2
  -7   7  -1 58439.9 2293.13   3
  -7   7  -1 57794.6 2595.11   2
  -8   7  -1 20206.0 1408.21   3
  -8   7  -1 18645.5 1531.29   2
  -9   7  -1 19131.3 1468.23   3
  -9   7  -1 20718.6 1696.59   2
 -10   7  -1 15216.2 1394.65   3
 -10   7  -1 16485.5 1573.47   2
 -11   7  -1 7264.56 1095.07   3
 -11   7  -1 6257.06 1039.96   2
 -12   7  -1 3848.86 889.656   2
 -12   7  -1 5629.34 1026.22   3
 -13   7  -1 1306.65 511.125   3
 -13   7  -1 2053.69 772.508   2
 -14   7  -1 50.3996 594.230   3
 -14   7  -1 533.536 515.816   2
 -15   7  -1 319.598 428.445   2
 -15   7  -1 228.557 557.831   3
 -16   7  -1 283.359 536.082   3
 -16   7  -1 284.949 471.993   2
 -17   7  -1-696.456 757.303   3
 -18   7  -1-852.116 694.361   3
 -14   8   1 4875.27 1110.55   2
 -13   8   1 12511.3 1620.16   2
 -12   8   1 14093.3 1635.56   2
 -11   8   1 22564.4 1991.44   2
 -10   8   1 20384.9 1805.49   2
 -10   8   1 23461.6 1776.68   3
  -9   8   1 47268.4 2408.30   3
  -9   8   1 45464.1 2595.85   2
  -8   8   1 57609.3 2499.27   3
  -8   8   1 53861.1 2735.31   2
  -7   8   1 101446. 3174.93   3
  -7   8   1 88090.6 3448.91   2
  -6   8   1 74289.3 2506.80   3
  -6   8   1 66977.9 2857.90   2
  -5   8   1 36095.5 2007.42   2
  -5   8   1 37924.9 1617.18   3
   5   8  -1 36861.7 1662.97   2
  -4   8   1 44971.7 1683.31   3
  -4   8   1 46254.5 2209.33   2
   4   8  -1 45098.1 1860.37   2
   3   8  -1 42284.7 1775.49   2
  -3   8   1 36282.6 1936.60   2
  -3   8   1 41789.8 1513.95   3
  -2   8   1 18594.7 1358.84   2
   2   8  -1 21105.9 1248.29   2
  -2   8   1 20935.0 1003.23   3
  -1   8   1 41144.1 1940.97   2
  -1   8   1 41183.5 1376.39   3
   1   8  -1 43726.8 1839.69   2
   0   8  -1 25819.6 1440.12   2
   0   8  -1 27318.4 1258.81   3
   0   8   1 25574.1 1067.88   3
   0   8   1 25710.9 1504.02   2
  -1   8  -1 34955.3 1447.87   3
   1   8   1 35499.9 1747.61   2
  -1   8  -1 34956.2 1698.99   2
  -2   8  -1 5976.56 718.470   2
  -2   8  -1 6012.34 610.733   3
   2   8   1 7109.87 770.581   2
   3   8   1 1218.06 391.581   2
  -3   8  -1 822.556 408.496   2
  -3   8  -1 349.826 248.646   3
   4   8   1-134.703 309.442   2
  -4   8  -1 311.236 328.352   2
  -4   8  -1 225.948 249.505   3
   5   8   1 791.306 365.601   2
  -5   8  -1 385.765 313.576   2
  -5   8  -1 821.345 311.136   3
  -6   8  -1 1104.68 384.663   2
  -6   8  -1 1814.55 456.297   3
  -7   8  -1 610.384 378.244   2
  -7   8  -1 806.457 306.352   3
  -8   8  -1 5509.11 898.743   2
  -8   8  -1 4943.70 761.302   3
  -9   8  -1 2720.73 661.440   3
  -9   8  -1 1316.85 533.485   2
 -10   8  -1 3201.65 703.731   3
 -10   8  -1 2084.22 671.521   2
 -11   8  -1 2561.67 807.181   2
 -11   8  -1 3192.94 788.088   3
 -12   8  -1 5018.76 948.664   2
 -12   8  -1 5380.11 997.681   3
 -13   8  -1 3922.00 940.735   3
 -13   8  -1 2805.41 847.329   2
 -14   8  -1 1056.00 728.397   2
 -14   8  -1 1398.66 656.948   3
 -13   9   1 3575.85 1068.84   2
 -12   9   1-243.694 518.785   2
 -11   9   1 432.728 562.406   2
 -10   9   1 1317.15 657.328   2
  -9   9   1 861.157 660.935   2
  -8   9   1 5308.07 948.672   2
  -7   9   1 6478.97 993.206   2
  -6   9   1 3538.78 722.216   2
  -5   9   1 13766.5 1312.45   2
   5   9  -1 15730.8 1179.97   2
  -4   9   1 20779.7 1542.29   2
   4   9  -1 22497.9 1387.13   2
  -3   9   1 23440.2 1605.89   2
   3   9  -1 22185.4 1369.46   2
  -2   9   1 23319.7 1575.61   2
   2   9  -1 21821.1 1373.26   2
   1   9  -1 20342.2 1142.63   3
   1   9  -1 20798.2 1341.87   2
  -1   9   1 20058.1 1427.60   2
   0   9  -1 31539.5 1439.64   3
   0   9   1 34637.5 1854.76   2
   0   9  -1 33940.9 1744.14   2
  -1   9  -1 24845.9 1275.87   3
   1   9   1 26091.6 1611.87   2
  -1   9  -1 25498.9 1546.95   2
   2   9   1 9676.11 960.819   2
  -2   9  -1 9132.41 950.892   2
  -2   9  -1 8903.15 754.752   3
   3   9   1 14008.2 1180.44   2
  -3   9  -1 13581.9 968.001   3
  -3   9  -1 12459.6 1140.47   2
  -4   9  -1 8944.38 1004.94   2
   4   9   1 7652.61 908.135   2
  -4   9  -1 9826.47 873.506   3
   5   9   1 10757.0 1042.21   2
  -5   9  -1 9694.85 881.039   3
  -5   9  -1 9638.22 1089.41   2
  -6   9  -1 6485.32 951.915   2
  -6   9  -1 6425.68 784.064   3
  -7   9  -1 776.271 530.891   2
  -7   9  -1-286.761 408.397   3
  -8   9  -1 869.655 479.031   3
  -8   9  -1 923.936 616.029   2
  -9   9  -1 1916.50 652.539   2
 -10   9  -1 6312.06 1061.23   2
 -11   9  -1 4042.47 968.938   2
 -12   9  -1 6743.96 1172.93   2
 -13   9  -1 8065.89 1334.33   2
 -11  10   1 3137.30 887.216   2
 -10  10   1 5466.23 1058.57   2
  -9  10   1 2120.00 735.064   2
  -8  10   1 1382.49 589.364   2
  -7  10   1 255.506 463.116   2
  -6  10   1 220.611 471.524   2
  -5  10   1 790.895 426.340   2
   4  10  -1 825.270 373.503   2
  -4  10   1-66.4691 370.448   2
   3  10  -1 53.8985 287.500   2
  -3  10   1 1120.75 427.186   2
  -2  10   1 370.367 361.756   2
   2  10  -1 427.513 380.981   2
   1  10  -1 3328.81 620.203   2
  -1  10   1 3432.24 694.730   2
   0  10  -1 3495.40 654.477   2
   0  10   1 4130.21 720.058   2
  -1  10  -1 12775.1 1160.02   2
   1  10   1 12033.2 1178.26   2
  -2  10  -1 13883.9 1228.45   2
   2  10   1 13560.7 1210.41   2
   3  10   1 9300.38 1008.79   2
  -3  10  -1 8806.34 1017.99   2
  -4  10  -1 11817.6 1224.53   2
   4  10   1 12746.0 1185.01   2
  -5  10  -1 12959.2 1277.44   2
   5  10   1 14272.3 1270.42   2
  -6  10  -1 15354.4 1449.62   2
  -7  10  -1 16254.4 1550.84   2
  -8  10  -1 19006.5 1721.63   2
  -9  10  -1 17191.8 1712.36   2
 -10  10  -1 12127.4 1504.11   2
 -11  10  -1 9249.27 1414.17   2
  -9  11   1 923.489 679.389   2
  -8  11   1 952.618 666.335   2
  -7  11   1 1122.48 627.448   2
  -6  11   1 338.463 458.378   2
  -5  11   1 818.595 567.395   2
  -4  11   1 1293.97 622.437   2
  -3  11   1 327.208 405.609   2
  -2  11   1 1815.92 611.837   2
   2  11  -1 1371.34 452.238   2
  -1  11   1 2978.05 739.669   2
   1  11  -1 3175.33 671.968   2
   0  11   1 2063.69 631.971   2
   0  11  -1 1345.62 458.676   2
   1  11   1 881.517 488.356   2
  -1  11  -1 1216.60 446.761   2
  -2  11  -1 3998.88 744.877   2
   2  11   1 3131.60 659.527   2
   3  11   1 4383.71 742.816   2
  -3  11  -1 5214.25 869.157   2
  -4  11  -1 2034.40 577.459   2
   4  11   1 3403.71 694.537   2
  -5  11  -1-231.669 465.438   2
   5  11   1 523.945 389.216   2
  -6  11  -1-70.6096 469.731   2
  -7  11  -1-123.255 474.353   2
  -8  11  -1-892.479 580.655   2
  -9  11  -1-67.3186 527.386   2
  -6  12   1-37.3066 515.886   2
  -5  12   1-747.259 584.129   2
  -4  12   1 259.473 446.071   2
  -3  12   1 3219.05 705.219   2
  -2  12   1 798.549 577.011   2
  -1  12   1 207.312 417.350   2
   0  12   1 999.456 525.639   2
  -1  12  -1 1432.12 549.070   2
   1  12   1 1629.95 588.739   2
  -2  12  -1 1330.99 496.963   2
   2  12   1 1446.87 601.127   2
  -3  12  -1 741.624 489.942   2
  -4  12  -1-460.985 415.970   2
  -5  12  -1 1235.50 575.267   2
  -6  12  -1 255.908 477.548   2
  -7  12  -1 87.4753 463.456   2
  -2  13   1 1374.88 629.972   2
  21   0  -2 66.8463 513.102   1
  20   0  -2 2284.38 781.489   1
  19   0  -2 384.272 480.689   1
  18   0  -2 646.149 560.191   1
  17   0  -2 848.878 609.288   1
  16   0  -2 3583.87 846.275   1
  15   0  -2 4088.53 938.292   1
  14   0  -2 19280.3 1740.06   1
  13   0  -2 32105.7 2211.69   1
  12   0  -2 8952.36 1197.44   1
  11   0  -2 2815.13 786.302   1
  10   0  -2 6477.42 985.830   1
  -9   0   2 3247.32 831.591   3
   9   0  -2 6342.67 962.260   1
   8   0  -2 6946.73 936.136   1
   7   0  -2 25319.0 1570.25   1
   6   0  -2 11211.3 988.335   1
   6   0  -2 11648.3 862.101   3
   5   0  -2 5713.20 536.499   3
   5   0  -2 6000.39 675.151   1
   4   0  -2 4962.86 428.657   3
   4   0  -2 6050.81 621.363   1
   3   0  -2 25003.8 1107.09   1
  -2   0   2 4506.08 245.040   2
   2   0  -2 4756.42 248.380   2
   2   0   2 434.835 123.158   3
  -2   0  -2 795.971 142.918   3
   3   0   2 4216.16 390.536   3
  -3   0  -2 4286.08 290.000   1
  -3   0  -2 3990.57 371.502   3
   4   0   2 3755.94 440.849   3
  -4   0  -2 4225.75 357.818   1
  -4   0  -2 3893.60 450.723   3
   4   0   2 3814.57 319.973   1
   5   0   2 484.676 173.758   1
   5   0   2 408.184 187.945   3
  -5   0  -2 238.312 276.576   3
   6   0   2 6701.80 620.521   1
  -6   0  -2 8182.05 885.979   3
  -7   0  -2 101.321 347.035   3
   7   0   2 945.459 333.650   1
  -8   0  -2 25266.2 1643.76   3
   8   0   2 29341.2 1511.62   1
   9   0   2 51628.9 2152.54   1
  -9   0  -2 47320.2 2358.52   3
  10   0   2 79683.9 2872.52   1
 -10   0  -2 77240.6 3169.19   3
 -11   0  -2 62736.7 2934.04   3
  11   0   2 63830.9 2669.02   1
 -12   0  -2 45854.4 2577.24   3
  12   0   2 53433.1 2510.45   1
 -13   0  -2 51990.2 2817.62   3
  13   0   2 52187.3 2575.92   1
  14   0   2 38665.8 2287.34   1
 -14   0  -2 33482.4 2351.17   3
  15   0   2 55079.7 2823.98   1
 -15   0  -2 53905.7 3000.34   3
 -16   0  -2 80058.2 3763.05   3
 -17   0  -2 62706.3 3418.92   3
 -18   0  -2 49655.9 3126.79   3
 -19   0  -2 26220.5 2318.66   3
  21   1  -2 7633.85 1317.29   1
  20   1  -2 5900.66 1162.48   1
  19   1  -2 7438.10 1249.76   1
  18  -1  -2 5362.18 1142.76   1
  18   1  -2 4633.21 998.254   1
  17  -1  -2 5124.96 1086.86   1
  17   1  -2 6228.41 1153.67   1
  16  -1  -2 4423.95 962.394   1
  16   1  -2 3450.53 863.137   1
  15   1  -2 812.319 531.496   1
  15  -1  -2 2057.27 776.074   1
 -15   1   2 2328.89 822.954   3
 -14   1   2 3438.15 945.764   3
  14   1  -2 3529.72 825.554   1
  14  -1  -2 3698.98 914.745   1
 -13   1   2 726.357 661.713   3
  13   1  -2 1373.71 709.248   1
  13  -1  -2 426.330 470.224   1
  12   1  -2 10320.6 1196.77   1
 -12   1   2 11765.6 1280.92   3
  12  -1  -2 11281.4 1285.84   1
  11  -1  -2 12717.5 1336.75   1
  11   1  -2 12175.1 1250.79   1
 -11   1   2 12844.4 1286.84   3
  10  -1  -2 12952.8 1287.44   1
  10   1  -2 10775.6 1115.07   1
 -10   1   2 11166.2 1138.82   3
  -9   1   2 12975.8 1162.93   3
   9  -1  -2 13578.4 1293.52   1
   9   1  -2 10803.3 1070.35   1
  -8   1   2 40168.2 1951.85   3
   8  -1  -2 41261.5 2179.07   1
   7  -1  -2 92451.0 3154.71   1
  -7   1   2 87096.8 2813.84   3
  -6   1   2 104729. 2886.91   3
   6  -1  -2 102508. 3136.68   3
   6  -1  -2 99317.5 3166.57   1
   5  -1  -2 83787.0 2541.54   3
   5   1  -2 85714.5 2190.79   3
   5  -1  -2 83728.8 2683.72   1
  -5   1   2 86936.1 2705.98   1
  -5   1   2 87384.0 2377.90   3
   4  -1  -2 52405.8 1679.18   3
   4  -1  -2 53389.3 1898.11   1
  -4   1   2 51791.0 1867.40   1
  -4   1   2 50881.4 1536.80   3
  -3   1   2 27241.2 917.202   2
   3  -1  -2 27456.8 972.462   3
  -3   1   2 28498.8 1227.35   1
   3  -1  -2 28467.4 1204.34   1
   2  -1  -2 49498.8 1191.44   2
  -2   1   2 50614.9 1479.76   1
  -2   1   2 47657.0 1189.39   2
   2  -1  -2 49040.9 1056.17   3
   2  -1  -2 50593.7 1424.65   1
  -1   1   2 5702.12 385.749   1
   1  -1  -2 6231.04 353.295   2
   0   1   2 13605.5 527.401   2
   0  -1  -2 12990.4 522.206   2
   1   1   2 343.313 80.7487   3
  -1   1  -2 217.757 85.1495   3
   1  -1   2 242.404 91.0910   3
  -1  -1  -2 221.634 80.2043   2
   1   1   2 336.992 101.509   2
  -1  -1  -2 198.685 59.1486   3
  -2  -1  -2 3845.38 332.141   2
  -2   1  -2 4822.61 338.033   3
  -2  -1  -2 4421.75 366.154   3
   2  -1   2 6280.56 395.564   3
   2   1   2 3637.03 329.999   3
  -3  -1  -2 23084.6 1086.67   3
   3   1   2 24226.0 1086.46   3
   3  -1   2 23819.7 926.905   3
  -3   1  -2 25346.0 939.275   3
   4   1   2 14848.4 982.836   3
  -4   1  -2 13992.9 637.077   1
  -4   1  -2 16191.9 839.842   3
   4  -1   2 15471.0 838.069   3
  -4  -1  -2 14807.1 962.040   3
  -5  -1  -2 39485.2 1770.06   3
  -5   1  -2 39546.2 1552.75   3
   5  -1   2 38842.9 1589.80   3
  -5   1  -2 41782.1 1285.47   1
   5   1   2 38585.6 1837.26   3
  -6  -1  -2 13525.2 1132.31   3
   6   1   2 15347.1 879.491   1
  -6   1  -2 14690.5 1009.62   3
  -6   1  -2 15469.4 870.357   1
  -7   1  -2 118016. 2983.64   1
  -7  -1  -2 118598. 3678.81   3
   7   1   2 120452. 3006.33   1
  -7   1  -2 123450. 3390.93   3
  -8  -1  -2 104576. 3639.19   3
  -8   1  -2 104672. 3521.15   3
   8   1   2 112356. 3063.85   1
  -8   1  -2 107630. 3007.26   1
  -9  -1  -2 98788.8 3524.44   3
   9   1   2 99752.8 3028.89   1
  -9   1  -2 94321.6 3391.73   3
  10   1   2 86567.3 2945.66   1
 -10   1  -2 79869.5 3324.87   3
 -10  -1  -2 86119.3 3358.62   3
 -11   1  -2 82099.7 3385.53   3
  11   1   2 90790.8 3112.02   1
 -11  -1  -2 86081.1 3476.66   3
  12   1   2 46001.2 2250.69   1
 -12  -1  -2 48444.6 2614.61   3
 -12   1  -2 43095.0 2506.35   3
 -13  -1  -2 38878.8 2393.70   3
 -13   1  -2 39080.7 2435.58   3
  13   1   2 42211.0 2207.68   1
 -14  -1  -2 47267.8 2759.88   3
 -14   1  -2 44294.1 2670.57   3
  14   1   2 48442.3 2434.97   1
 -15   1  -2 17359.4 1711.50   3
 -15  -1  -2 17782.8 1731.14   3
  15   1   2 14846.5 1395.25   1
  16   1   2 10166.4 1219.99   1
 -16   1  -2 11002.7 1395.69   3
 -16  -1  -2 11512.5 1472.96   3
 -17  -1  -2 4296.28 995.239   3
  17   1   2 3384.24 787.241   1
 -17   1  -2 4201.90 982.257   3
 -18  -1  -2 1144.97 601.009   3
 -18   1  -2 1283.78 650.156   3
 -19  -1  -2 1395.53 819.014   3
 -19   1  -2 1024.54 650.338   3
  20   2  -2 14282.7 1699.58   1
  19   2  -2 25241.9 2188.14   1
  18   2  -2 46694.0 2949.36   1
 -17   2   2 69149.3 3474.39   3
  17   2  -2 60479.3 3271.63   1
 -16   2   2 64672.9 3269.42   3
  16   2  -2 59414.9 3194.78   1
  15   2  -2 67435.6 3311.04   1
 -15   2   2 66296.8 3237.78   3
  14   2  -2 65593.5 3163.79   1
 -14   2   2 68270.1 3187.52   3
  13  -2  -2 67672.5 3390.50   1
  13   2  -2 59078.7 2928.28   1
 -13   2   2 65194.4 3021.79   3
  12   2  -2 48145.6 2526.23   1
  12  -2  -2 51036.6 2852.95   1
 -12   2   2 48357.1 2498.26   3
 -11   2   2 89094.7 3384.85   3
  11  -2  -2 90840.4 3751.42   1
 -10   2   2 85689.0 3212.14   3
  10  -2  -2 84619.8 3539.88   1
  -9   2   2 81409.4 2959.97   3
   9  -2  -2 74731.5 3200.84   1
   8  -2  -2 23755.5 1647.63   1
  -8   2   2 23323.8 1476.25   3
   7  -2  -2 6898.89 866.383   1
  -7   2   2 7159.57 779.871   3
  -6   2   2 16700.0 1089.00   3
   6  -2  -2 17834.2 1261.11   3
   5  -2  -2 70568.6 2412.09   3
  -5   2   2 74895.6 2242.63   3
  -4   2   2 71680.8 2017.41   3
  -4   2   2 77180.1 2012.11   2
  -4   2   2 77412.4 2162.65   1
   4  -2  -2 79647.9 2253.44   3
  -3   2   2 118883. 2665.46   1
  -3   2   2 115959. 2489.40   2
  -3   2   2 122970. 2423.17   3
  -3  -2   2 121083. 1799.03   2
   3  -2  -2 123304. 2493.92   3
  -2   2   2 80474.4 1868.71   2
   2  -2  -2 80642.7 1870.96   2
  -2   2   2 84688.0 1542.09   3
   2  -2  -2 81422.7 1480.93   3
  -1   2   2 150943. 2737.31   2
   1   2  -2 153863. 2179.34   2
   1  -2  -2 147099. 2748.17   2
   0   2   2 371857. 5473.54   2
   0  -2  -2 378523. 5511.85   2
   1   2   2 430571. 5921.57   3
  -1  -2  -2 423732. 6135.98   2
  -1  -2  -2 438898. 5690.04   3
  -1   2  -2 423006. 5934.05   3
   1   2   2 426463. 6073.95   2
  -2  -2  -2 421602. 6115.29   2
  -2  -2  -2 413428. 6090.08   3
   2   2   2 421260. 6019.62   2
   2  -2   2 415360. 5952.84   3
  -2   2  -2 418675. 5919.73   3
  -3   2  -2 444588. 6557.09   3
   3  -2   2 460668. 6672.53   3
  -3  -2  -2 453214. 6698.56   2
  -3  -2  -2 437543. 6988.56   3
   3   2   2 445694. 7396.38   3
   4   2   2 331845. 6336.60   3
   4  -2   2 322538. 5350.58   3
  -4  -2  -2 323359. 5315.61   2
  -4   2  -2 337756. 5324.15   3
  -5   2  -2 302526. 5309.59   3
  -5  -2  -2 291774. 5840.55   3
  -6   2  -2 202574. 3898.08   1
  -6   2  -2 214894. 4320.42   3
  -6  -2  -2 201009. 4803.81   3
  -7  -2  -2 212356. 5094.58   3
  -7   2  -2 210163. 4619.07   3
  -8  -2  -2 285150. 6348.39   3
  -8   2  -2 272894. 5846.99   3
  -9   2  -2 132849. 3964.39   3
  -9  -2  -2 141551. 4308.54   3
 -10  -2  -2 82939.9 3296.85   3
 -10   2  -2 74407.4 3066.45   3
  10   2   2 78661.6 2680.12   1
 -11   2  -2 46410.6 2509.98   3
  11   2   2 45835.7 2122.17   1
 -11  -2  -2 51441.2 2642.18   3
 -12  -2  -2 27491.4 2009.33   3
  12   2   2 24404.1 1595.84   1
 -12   2  -2 21605.5 1732.45   3
 -13   2  -2 1406.52 650.304   3
  13   2   2 872.511 397.024   1
 -13  -2  -2 781.064 529.703   3
 -14  -2  -2-526.508 570.325   3
  14   2   2 646.332 406.957   1
 -14   2  -2 157.362 407.986   3
 -15   2  -2 317.337 502.683   3
 -15  -2  -2 867.572 629.492   3
  15   2   2 277.561 386.798   1
 -16   2  -2 1974.51 787.806   3
  16   2   2 872.397 419.427   1
 -16  -2  -2 1465.13 789.633   3
 -17   2  -2 2328.17 894.618   3
 -18   2  -2 5169.01 1133.39   3
 -19   2  -2 10170.3 1501.59   3
  20   3  -2 1598.50 672.152   1
  19   3  -2-409.082 585.381   1
 -18   3   2 725.341 717.912   3
  18   3  -2 744.717 477.589   1
 -17   3   2 3140.09 860.221   3
  17   3  -2 3071.48 800.799   1
  16   3  -2 9054.38 1267.48   1
 -16   3   2 7664.11 1155.83   3
  15   3  -2 16921.0 1636.28   1
 -15   3   2 15761.0 1547.30   3
  14   3  -2 25541.3 1943.61   1
 -14   3   2 28753.9 2022.73   3
 -13   3   2 65579.3 3011.46   3
 -12   3   2 56470.7 2680.18   3
 -11   3   2 166022. 4710.16   3
 -10   3   2 202198. 5172.30   3
  -9   3   2 279728. 6144.00   3
  -8   3   2 368941. 7149.71   3
  -7   3   2 410048. 7469.60   3
   6  -3  -2 319054. 5963.01   3
  -6   3   2 321717. 5953.20   2
  -6   3   2 331940. 6073.34   3
  -6  -3   2 310244. 4938.25   2
   5  -3  -2 464417. 7293.93   3
  -5   3   2 461243. 7567.94   3
  -5  -3   2 472360. 6517.16   2
  -5   3   2 459517. 7593.21   2
  -4   3   2 298960. 5177.32   3
  -4   3   2 302567. 5266.93   2
  -4  -3   2 301226. 4352.00   2
   4  -3  -2 299357. 4718.23   3
   3   3  -2 478830. 6288.66   2
  -3   3   2 463978. 6940.80   3
   3  -3  -2 476421. 6455.51   3
  -3   3   2 489452. 7350.81   2
  -3  -3   2 475926. 6423.73   2
   2   3  -2 266733. 3711.81   2
   2  -3  -2 265238. 4581.60   2
  -2  -3   2 266159. 3834.04   2
  -2   3   2 259073. 3752.14   3
   2  -3  -2 250891. 3510.07   3
  -2   3   2 261538. 4504.72   2
   1   3  -2 435319. 5966.06   2
   1  -3  -2 444290. 6735.06   2
  -1   3   2 445733. 6657.46   2
   0   3   2 221749. 3905.56   2
   0   3  -2 225318. 3539.04   2
   0  -3  -2 232738. 3990.71   2
  -1  -3  -2 139092. 2841.77   2
   1   3   2 139555. 2778.95   2
  -1   3  -2 141978. 2597.19   3
   1   3   2 146207. 2434.78   3
   2   3   2 73681.2 1825.98   2
  -2   3  -2 74104.9 1738.07   3
   2   3   2 75427.5 1897.12   3
  -2  -3  -2 73756.4 1906.05   2
  -3   3  -2 50867.3 1466.44   3
   3   3   2 50241.1 1503.24   2
   3  -3   2 51276.4 1502.26   3
  -3  -3  -2 52743.7 1616.02   2
   3   3   2 52087.5 1783.94   3
   4   3   2 23269.8 1327.32   3
  -4  -3  -2 22511.2 1062.94   2
  -4   3  -2 24599.4 1048.53   3
   5   3   2 1503.04 395.503   3
  -5   3  -2 1973.95 382.943   3
  -5  -3  -2 2275.81 432.643   3
  -6   3  -2 6662.48 655.853   3
  -6  -3  -2 7064.10 755.107   3
  -7  -3  -2 10562.8 994.012   3
  -7   3  -2 10226.0 899.585   3
  -8  -3  -2 38101.0 1998.11   3
  -8   3  -2 38079.5 1842.23   3
  -9  -3  -2 43902.4 2294.29   3
  -9   3  -2 46927.9 2205.52   3
 -10   3  -2 72247.3 2978.22   3
 -10  -3  -2 75869.4 3192.95   3
 -11  -3  -2 61737.8 2947.40   3
 -11   3  -2 59303.5 2818.32   3
  12   3   2 66755.4 2671.36   1
 -12   3  -2 63431.5 3087.86   3
  13   3   2 68292.6 2828.00   1
 -13   3  -2 65429.8 3241.05   3
  14   3   2 52456.7 2551.38   1
 -14   3  -2 47672.1 2825.09   3
 -15   3  -2 50222.0 2955.45   3
  15   3   2 51749.1 2598.54   1
  16   3   2 41187.9 2379.66   1
 -16   3  -2 38613.5 2672.78   3
 -17   3  -2 34673.9 2574.00   3
 -18   3  -2 34137.2 2615.80   3
 -19   3  -2 19812.1 2048.60   3
  20   4  -2 1243.77 629.623   1
  19   4  -2 5187.49 983.796   1
 -19   4   2 6962.44 1263.33   3
  18   4  -2 2271.23 800.813   1
 -18   4   2 3866.06 931.340   3
  17   4  -2 4470.57 962.945   1
 -17   4   2 3750.51 962.427   3
 -16   4   2 9285.39 1293.14   3
  16   4  -2 7878.04 1169.83   1
 -15   4   2 12796.4 1433.89   3
 -14   4   2 11523.9 1307.09   3
 -13   4   2 22131.3 1725.27   3
 -12   4   2 15610.8 1412.85   3
 -11   4   2 14003.2 1291.00   3
 -10   4   2 670.088 332.252   3
  -9   4   2 869.982 441.543   3
  -8   4   2 837.912 354.994   3
  -8  -4   2 470.549 195.752   2
  -8   4   2 271.440 321.535   2
  -7   4   2-105.366 313.418   3
  -7  -4   2 318.481 172.238   2
  -7   4   2-372.868 333.250   2
  -6   4   2 39.6741 289.098   2
  -6   4   2 145.271 244.776   3
   6  -4  -2 515.422 233.090   3
  -6  -4   2 710.180 182.694   2
  -5   4   2 1652.58 335.625   3
   5  -4  -2 1513.92 266.982   3
  -5  -4   2 1628.77 238.741   2
  -5   4   2 1140.90 302.961   2
  -4  -4   2 14243.7 674.395   2
  -4   4   2 12769.9 763.573   3
   4   4  -2 12819.6 594.751   2
  -4   4   2 13684.5 921.434   2
   4  -4  -2 13762.5 635.768   3
  -3   4   2 25826.6 1225.15   2
   3  -4  -2 26492.3 770.063   3
   3   4  -2 25384.7 851.826   2
  -3  -4   2 27047.9 957.018   2
  -3   4   2 26748.7 919.017   3
  -2   4   2 80260.5 1517.84   3
  -2  -4   2 82100.0 1888.75   2
  -2   4   2 83184.8 2248.63   2
   2   4  -2 77512.3 1713.41   2
  -1   4   2 70559.5 1265.17   3
   1   4  -2 76877.4 1692.15   2
  -1   4   2 76715.8 2086.49   2
   0   4  -2 99426.4 2137.36   2
   0   4   2 98579.4 2422.75   2
  -1   4  -2 54207.6 1557.29   2
   1   4   2 53324.8 1666.99   2
  -1   4  -2 56446.0 1520.20   3
  -2   4  -2 73004.9 1834.98   3
   2   4   2 70006.5 1725.04   3
   2   4   2 69371.9 1931.14   2
   3   4   2 85787.7 2220.38   2
  -3   4  -2 89616.0 2143.89   3
   3   4   2 85405.9 2271.58   3
   4   4   2 77986.6 2151.56   2
  -4   4  -2 83433.7 2152.93   3
   4   4   2 81144.5 2472.31   3
   5   4   2 130249. 3594.52   3
  -5   4  -2 130271. 3020.55   3
  -6   4  -2 111993. 2925.47   3
  -7   4  -2 33993.3 1614.11   3
  -8   4  -2 28866.3 1594.07   3
  -9   4  -2 13365.1 1188.59   3
 -10   4  -2 9355.68 1059.63   3
 -11   4  -2 7593.80 1048.54   3
 -12   4  -2 5822.71 945.695   3
 -13   4  -2 8255.34 1180.94   3
  14   4   2 3647.10 704.518   1
 -14   4  -2 1911.33 647.656   3
  15   4   2-72.5076 421.819   1
 -15   4  -2-136.501 518.970   3
 -16   4  -2 5.51548 595.124   3
 -17   4  -2 1289.66 656.811   3
 -18   4  -2 948.236 586.583   3
 -19   5   2 2358.85 864.458   3
  19   5  -2-620.852 597.157   1
 -18   5   2 853.006 570.815   2
 -18   5   2 1877.61 776.915   3
  18   5  -2 647.277 510.766   1
 -17   5   2 2942.00 812.091   3
  17   5  -2 1919.20 668.330   1
 -16   5   2 4211.78 934.033   3
 -15   5   2 4006.77 857.622   3
 -14   5   2 6159.11 992.059   3
 -13   5   2 462.560 533.470   2
 -13   5   2 1090.11 492.652   3
 -12   5   2 359.944 503.786   2
 -12   5   2-16.8441 332.543   3
 -11   5   2 6414.29 1012.74   2
 -11   5   2 5433.05 811.933   3
 -10   5   2 8135.51 1049.67   2
 -10   5   2 10426.4 1087.10   3
  -9   5   2 12906.9 1149.26   3
  -9   5   2 12888.3 1241.94   2
  -8   5   2 22527.4 1453.36   3
  -8   5   2 23183.0 1572.19   2
  -7  -5   2 19174.1 998.228   2
  -7   5   2 21711.1 1433.81   2
  -7   5   2 20922.3 1315.87   3
  -6  -5   2 27701.3 1170.08   2
   6  -5  -2 26762.2 1174.34   3
  -6   5   2 30428.9 1608.66   2
  -6   5   2 29671.1 1426.63   3
   5  -5  -2 17132.6 834.316   3
  -5  -5   2 15462.1 845.318   2
  -5   5   2 16599.6 1156.89   2
  -5   5   2 17116.8 980.307   3
  -4   5   2 10823.0 715.512   3
  -4   5   2 11711.5 940.692   2
  -4  -5   2 10468.1 719.784   2
   4   5  -2 11665.0 644.402   2
  -3   5   2 17200.0 756.722   3
  -3  -5   2 17364.7 891.205   2
   3   5  -2 17605.5 798.401   2
  -3   5   2 17572.1 1103.71   2
  -2   5   2 10994.0 519.983   3
  -2  -5   2 13004.3 802.048   2
   2   5  -2 12087.9 672.319   2
  -2   5   2 11194.0 874.081   2
  -1   5   2 38443.4 1544.29   2
   1   5  -2 38616.8 1274.15   2
  -1   5   2 37676.4 915.257   3
   0   5   2 12845.0 879.268   2
   0   5  -2 14268.9 789.734   2
  -1   5  -2 3846.32 440.662   2
   1   5   2 2559.65 411.642   2
  -1   5  -2 3636.08 430.616   3
  -2   5  -2 16276.8 864.689   3
  -2   5  -2 17345.1 967.404   2
   2   5   2 16326.8 951.217   2
   2   5   2 16545.0 774.640   3
   3   5   2 22280.7 1130.05   2
   3   5   2 24073.0 1079.20   3
  -3   5  -2 21168.8 1150.63   2
  -3   5  -2 22077.5 1049.21   3
   4   5   2 33033.5 1399.65   2
   4   5   2 33787.4 1480.36   3
  -4   5  -2 32616.7 1341.93   3
  -5   5  -2 14490.0 919.317   3
  -6   5  -2 10630.0 855.496   3
  -7   5  -2 13105.8 1012.70   3
  -8   5  -2 1194.04 397.154   3
  -9   5  -2 676.985 441.992   3
 -10   5  -2 2760.10 663.460   3
 -11   5  -2 625.213 407.093   3
 -12   5  -2 160.783 404.887   3
 -13   5  -2-114.847 552.780   3
 -14   5  -2-571.899 676.754   3
 -15   5  -2 631.004 524.378   3
 -16   5  -2 671.729 588.875   3
 -17   5  -2 2493.00 747.318   3
 -18   5  -2 9670.16 1484.00   3
 -19   6   2 4785.84 1071.07   3
 -18   6   2 5637.96 1089.09   3
  18   6  -2 1969.52 692.043   1
 -17   6   2 3161.56 951.985   2
 -17   6   2 2556.14 766.989   3
 -16   6   2 2715.52 883.647   2
 -16   6   2 4425.83 907.631   3
 -15   6   2 3101.34 797.960   3
 -15   6   2 2774.30 919.041   2
 -14   6   2 4875.67 928.620   3
 -14   6   2 6055.27 1134.13   2
 -13   6   2 10667.1 1444.05   2
 -13   6   2 9099.22 1142.15   3
 -12   6   2 672.605 500.674   3
 -12   6   2 1908.14 722.644   2
 -11   6   2 4313.20 939.797   2
 -11   6   2 4798.64 793.994   3
 -10   6   2 1443.92 672.835   2
 -10   6   2 190.738 423.138   3
  -9   6   2 163.720 330.620   3
  -9   6   2 546.787 424.474   2
  -8   6   2 386.962 447.958   2
  -8   6   2 872.199 417.157   3
  -7   6   2 1334.88 453.910   2
  -7   6   2 1337.46 371.979   3
  -6   6   2 1481.44 476.509   2
  -6   6   2 561.139 312.467   3
  -5   6   2 1634.96 353.647   3
  -5   6   2 1379.79 458.089   2
   5   6  -2 1525.59 299.928   2
   4   6  -2 9728.72 666.657   2
  -4   6   2 10435.5 945.058   2
  -4   6   2 11463.8 704.749   3
  -3   6   2 15563.5 742.767   3
  -3   6   2 14232.0 1062.78   2
   3   6  -2 14685.7 821.626   2
  -2   6   2 33126.5 1019.98   3
  -2   6   2 33322.2 1585.71   2
   2   6  -2 34939.1 1312.15   2
   1   6  -2 15674.8 885.692   2
  -1   6   2 14590.0 602.678   3
  -1   6   2 16551.4 1067.83   2
   0   6   2 26988.8 1369.57   2
   0   6   2 27438.3 837.255   3
   0   6  -2 26630.1 1197.19   2
   1   6   2 14941.4 998.456   2
  -1   6  -2 15073.2 940.206   2
  -1   6  -2 15574.5 885.022   3
  -2   6  -2 12870.6 885.555   2
   2   6   2 11972.0 706.005   3
  -2   6  -2 12554.3 810.242   3
   2   6   2 12923.3 923.630   2
   3   6   2 28526.5 1247.31   3
  -3   6  -2 29206.0 1435.60   2
  -3   6  -2 29036.3 1280.58   3
   3   6   2 30919.9 1447.45   2
  -4   6  -2 33861.8 1457.81   3
  -4   6  -2 33558.5 1634.11   2
   4   6   2 35414.1 1559.16   2
  -5   6  -2 64506.6 2130.46   3
   5   6   2 66540.4 2236.63   2
  -5   6  -2 66610.9 2475.18   2
  -6   6  -2 63553.8 2230.69   3
  -6   6  -2 65516.1 2562.07   2
  -7   6  -2 26457.9 1498.08   3
  -8   6  -2 43710.0 2025.37   3
  -9   6  -2 22665.4 1559.27   3
 -10   6  -2 16634.6 1405.20   3
 -11   6  -2 27182.2 1912.33   3
 -12   6  -2 25209.3 1954.15   3
 -13   6  -2 15293.3 1626.55   3
 -14   6  -2 17226.1 1792.18   3
 -15   6  -2 9084.23 1317.00   3
 -16   6  -2 5131.54 1123.25   3
 -17   6  -2 2608.26 841.076   3
 -18   6  -2 3425.04 900.964   3
 -16   7   2 1307.20 703.976   2
 -15   7   2 4912.70 1120.84   2
 -14   7   2 5748.11 1189.34   2
 -14   7   2 4483.41 911.644   3
 -13   7   2 13918.7 1665.81   2
 -13   7   2 11991.2 1310.72   3
 -12   7   2 8846.12 1254.91   2
 -12   7   2 10847.3 1196.01   3
 -11   7   2 13797.8 1306.11   3
 -11   7   2 15610.4 1599.84   2
 -10   7   2 3437.90 652.083   3
 -10   7   2 3619.94 810.477   2
  -9   7   2 3013.85 554.501   3
  -9   7   2 2172.37 669.524   2
  -8   7   2 5613.80 848.656   2
  -8   7   2 6594.23 797.945   3
  -7   7   2 10879.6 980.418   3
  -7   7   2 10012.8 1121.59   2
  -6   7   2 1563.62 394.761   3
  -6   7   2 907.200 371.393   2
   5   7  -2 14063.7 877.986   2
  -5   7   2 13678.6 916.991   3
  -5   7   2 13221.5 1159.28   2
  -4   7   2 6236.30 568.364   3
  -4   7   2 4887.29 707.110   2
   4   7  -2 5664.69 565.586   2
  -3   7   2 10058.9 647.580   3
   3   7  -2 11385.8 807.416   2
  -3   7   2 9917.25 944.315   2
   2   7  -2 365.476 200.675   2
  -2   7   2 424.571 265.711   2
  -2   7   2 771.094 220.158   3
  -1   7   2 192.399 129.510   3
   1   7  -2 498.477 236.535   2
   0   7   2 1158.44 216.457   3
   0   7   2 1433.19 451.551   2
   0   7  -2 1725.58 382.176   2
  -1   7  -2 12058.8 827.232   3
  -1   7  -2 11433.4 891.919   2
   1   7   2 9805.68 915.834   2
  -2   7  -2 4500.67 523.421   3
  -2   7  -2 4546.48 621.906   2
   2   7   2 2975.72 542.767   2
   3   7   2 974.266 389.933   2
  -3   7  -2 1139.65 366.382   2
   3   7   2 880.500 280.156   3
  -3   7  -2 978.396 323.459   3
   4   7   2 1936.79 465.813   2
  -4   7  -2 2311.56 476.266   3
  -4   7  -2 1423.02 435.642   2
   5   7   2 1708.86 491.652   2
  -5   7  -2 1888.74 484.154   3
  -5   7  -2 2455.13 564.263   2
  -6   7  -2 898.968 409.084   3
  -6   7  -2 316.962 417.796   2
  -7   7  -2 5660.68 892.943   2
  -7   7  -2 6001.22 755.078   3
  -8   7  -2 961.546 385.769   3
  -8   7  -2 298.687 409.384   2
  -9   7  -2 4034.64 796.085   2
  -9   7  -2 4989.72 852.773   3
 -10   7  -2 1774.95 623.972   3
 -11   7  -2 572.103 535.943   3
 -12   7  -2 135.723 536.796   3
 -13   7  -2-580.216 606.121   3
 -14   7  -2 46.1035 630.000   3
 -15   7  -2 489.690 562.004   3
 -16   7  -2 171.081 673.106   3
 -17   7  -2-1369.82 711.788   3
 -14   8   2 2936.92 945.292   2
 -13   8   2 2060.33 856.171   2
 -12   8   2 1484.37 761.773   2
 -11   8   2 2493.18 748.244   2
 -10   8   2 826.660 652.954   2
  -9   8   2 1896.11 743.922   2
  -8   8   2 3848.58 793.087   2
  -7   8   2 481.804 463.733   2
  -6   8   2 8335.79 1031.70   2
  -5   8   2 8009.05 980.726   2
  -5   8   2 7842.28 729.760   3
   5   8  -2 6246.64 667.460   2
  -4   8   2 2201.79 376.782   3
   4   8  -2 2025.78 422.674   2
  -4   8   2 908.023 474.559   2
  -3   8   2 815.438 234.384   3
   3   8  -2 852.478 338.005   2
  -3   8   2 261.647 318.945   2
  -2   8   2 674.252 229.721   3
  -2   8   2 385.780 376.030   2
   2   8  -2 904.044 372.032   2
  -1   8   2 2111.30 474.959   2
  -1   8   2 2536.58 317.178   3
   1   8  -2 2671.80 465.787   2
   0   8   2 896.818 384.893   2
   0   8  -2 1561.53 362.206   3
   0   8  -2 1283.36 384.011   2
   0   8   2 1332.85 233.448   3
  -1   8  -2-56.6189 318.852   2
   1   8   2-357.176 361.793   2
  -1   8  -2 662.962 332.969   3
   1   8   2 170.909 142.335   3
  -2   8  -2 605.425 346.859   2
  -2   8  -2 410.870 248.520   3
   2   8   2 107.685 263.974   2
  -3   8  -2 48.7085 219.988   3
   3   8   2 535.449 341.690   2
  -3   8  -2 129.086 270.140   2
  -4   8  -2 2021.22 454.011   3
  -4   8  -2 1364.61 444.791   2
   4   8   2 1521.33 424.123   2
  -5   8  -2 1267.01 442.534   2
   5   8   2 1876.61 474.808   2
  -6   8  -2 4124.98 648.149   3
  -6   8  -2 5396.47 799.931   2
  -7   8  -2 821.019 382.721   3
  -7   8  -2 1349.33 432.131   2
  -8   8  -2 493.048 336.478   3
  -8   8  -2 22.8590 378.682   2
  -9   8  -2 4893.80 817.387   3
  -9   8  -2 5006.37 940.786   2
 -10   8  -2 3600.11 753.980   3
 -10   8  -2 4078.18 865.785   2
 -11   8  -2 7904.15 1135.12   3
 -11   8  -2 6505.19 1117.22   2
 -12   8  -2 4175.04 971.754   2
 -12   8  -2 3394.41 877.438   3
 -13   8  -2 5226.60 1004.02   3
 -13   8  -2 4451.08 1008.85   2
 -14   8  -2 2976.51 911.915   2
 -14   8  -2 2668.85 824.445   3
 -15   8  -2 2210.52 806.346   3
 -16   8  -2 1991.95 800.880   3
 -13   9   2 1631.06 848.933   2
 -12   9   2-27.0626 543.455   2
 -11   9   2 1160.17 728.661   2
 -10   9   2-243.641 510.207   2
  -9   9   2 1220.51 658.361   2
  -8   9   2 287.754 359.298   2
  -7   9   2 228.554 395.796   2
  -6   9   2-185.804 479.549   2
   5   9  -2-5.32350 258.605   2
  -5   9   2-534.864 462.819   2
  -4   9   2 504.599 380.276   2
   4   9  -2 778.082 279.814   2
  -3   9   2 1336.26 465.075   2
   3   9  -2 889.213 320.866   2
   2   9  -2 533.066 298.427   2
  -2   9   2 393.932 366.117   2
  -1   9   2-129.639 356.864   2
   1   9  -2 222.127 278.366   2
   1   9  -2 134.247 233.920   3
   0   9  -2 230.835 280.231   2
   0   9   2 19.2631 326.490   2
   0   9  -2-254.012 284.419   3
  -1   9  -2 5781.84 656.578   3
  -1   9  -2 4949.45 690.446   2
   1   9   2 5926.97 785.408   2
  -2   9  -2 14394.3 1031.93   3
   2   9   2 16578.7 1298.75   2
  -2   9  -2 15289.0 1213.62   2
   3   9   2 10176.3 1013.24   2
  -3   9  -2 10526.8 889.909   3
  -3   9  -2 9817.37 1005.31   2
   4   9   2 15107.4 1264.87   2
  -4   9  -2 14183.7 1089.81   3
  -4   9  -2 14139.6 1211.78   2
   5   9   2 12136.4 1159.94   2
  -5   9  -2 12496.3 1186.93   2
  -5   9  -2 12056.9 1034.69   3
  -6   9  -2 1212.76 502.082   2
  -6   9  -2 1222.69 469.877   3
  -7   9  -2 7121.64 870.345   3
  -7   9  -2 5905.65 940.643   2
  -8   9  -2 6360.76 983.088   2
  -8   9  -2 7325.65 907.053   3
  -9   9  -2 14954.7 1389.97   3
  -9   9  -2 12902.8 1451.92   2
 -10   9  -2 15798.3 1476.19   3
 -10   9  -2 12800.5 1477.34   2
 -11   9  -2 13273.5 1546.95   2
 -12   9  -2 7182.27 1188.53   2
 -13   9  -2 3465.03 940.880   2
 -11  10   2 4846.96 1032.56   2
 -10  10   2 6645.46 1226.65   2
  -9  10   2 4153.55 871.120   2
  -8  10   2 2248.35 679.359   2
  -7  10   2 199.468 444.251   2
  -6  10   2-541.694 479.370   2
  -5  10   2-396.681 472.926   2
  -4  10   2 1777.19 560.004   2
   3  10  -2 7507.43 824.695   2
  -3  10   2 6464.02 957.096   2
  -2  10   2 7287.37 996.172   2
   2  10  -2 7321.23 838.862   2
  -1  10   2 8895.76 1053.32   2
   1  10  -2 9078.91 940.496   2
   1  10  -2 7302.65 774.032   3
   0  10  -2 9595.29 859.444   3
   0  10  -2 10573.1 1033.08   2
   0  10   2 11803.4 1187.20   2
  -1  10  -2 25348.6 1609.69   2
   1  10   2 26930.1 1769.22   2
  -2  10  -2 15767.8 1294.68   2
   2  10   2 13734.6 1272.50   2
  -3  10  -2 17870.0 1412.54   2
   3  10   2 17546.9 1422.01   2
  -4  10  -2 13911.5 1287.47   2
   4  10   2 13019.0 1253.45   2
  -5  10  -2 14055.4 1334.70   2
   5  10   2 11968.5 1199.49   2
  -6  10  -2 13358.1 1328.91   2
  -7  10  -2 9191.06 1177.73   2
  -8  10  -2 3346.96 804.975   2
  -9  10  -2 2079.96 745.589   2
 -10  10  -2 708.782 625.424   2
 -11  10  -2 1506.43 806.161   2
  -8  11   2 14139.6 1597.26   2
  -7  11   2 20790.5 1875.62   2
  -6  11   2 27691.0 2094.75   2
  -5  11   2 24151.4 1921.13   2
  -4  11   2 23050.2 1845.81   2
  -3  11   2 20738.3 1729.84   2
  -2  11   2 11499.0 1277.80   2
  -1  11   2 9833.23 1180.68   2
   0  11  -2 6804.97 893.103   2
   0  11   2 7304.61 1009.06   2
   1  11   2 4687.45 820.592   2
  -1  11  -2 5023.64 803.466   2
   2  11   2 4023.68 761.877   2
  -2  11  -2 3053.62 656.544   2
   3  11   2 772.453 373.987   2
  -3  11  -2 293.451 423.634   2
   4  11   2 780.287 458.176   2
  -4  11  -2 244.059 379.246   2
   5  11   2 1613.27 556.540   2
  -5  11  -2 805.012 457.423   2
  -6  11  -2 6475.62 992.477   2
  -7  11  -2 8217.71 1159.98   2
  -8  11  -2 8753.96 1231.76   2
  -9  11  -2 11271.8 1430.58   2
  -5  12   2 768.905 557.722   2
  -4  12   2 2655.43 752.480   2
  -3  12   2 2356.40 721.988   2
  -2  12   2 7667.45 1128.47   2
  -1  12   2 9800.58 1238.62   2
   0  12   2 13579.8 1407.82   2
   1  12   2 11641.6 1302.29   2
   2  12   2 16834.2 1552.07   2
   3  12   2 16256.2 1531.60   2
  -3  12  -2 11835.7 1296.67   2
  -4  12  -2 11828.8 1349.56   2
  -5  12  -2 9425.58 1221.63   2
  -6  12  -2 12841.6 1434.39   2
  -7  12  -2 7258.41 1126.47   2
  -1  13   2 2330.29 687.643   2
   0  13   2 1443.64 618.052   2
  21   0  -3-25.4895 584.424   1
  20   0  -3 365.681 553.967   1
  19   0  -3-144.082 489.014   1
  18   0  -3-153.778 468.919   1
  17   0  -3 203.744 529.123   1
  16   0  -3 485.505 502.558   1
  15   0  -3 181.547 494.060   1
  14   0  -3 1868.35 696.405   1
  13   0  -3 537.254 493.755   1
  12   0  -3 10.7231 379.039   1
  11   0  -3-90.9580 366.786   1
  10   0  -3-74.1601 343.241   1
   9   0  -3 33.8918 309.459   1
   8   0  -3-225.209 372.242   1
   7   0  -3 9.72333 323.448   1
   6   0  -3 259.970 259.086   1
   5   0  -3 381.659 281.552   1
   5   0  -3 280.121 172.063   3
   4   0  -3 65.1411 184.775   1
  -4   0   3-94.4479 100.385   2
  -3   0   3 148.198 79.8856   2
   3   0  -3 144.344 180.121   1
  -2   0   3 44.8016 54.7629   2
   2   0  -3 4.13464 43.1738   2
   1   0  -3 191.105 71.7102   2
  -1   0   3 40.4782 50.0013   2
   0   0  -3 778.054 124.999   2
  -1   0  -3 28.1851 69.9977   3
   1   0   3 270.419 98.7999   3
  -2   0  -3 619.908 173.923   3
   2   0   3-5.89778 78.9231   3
  -3   0  -3 102.386 114.952   3
   3   0   3 276.707 127.252   3
  -4   0  -3 16.2075 208.123   3
   4   0   3 20.3409 106.775   3
  -4   0  -3 58.6498 66.5594   1
  -5   0  -3 893.466 320.485   3
   5   0   3 253.036 185.043   3
  -6   0  -3 1186.25 364.091   3
   7   0   3-36.2902 160.732   1
  -7   0  -3 127.403 231.353   3
   8   0   3 315.356 214.160   1
  -8   0  -3-172.434 409.744   3
  -9   0  -3-331.104 482.226   3
   9   0   3-45.3628 213.655   1
 -10   0  -3-336.514 436.431   3
  10   0   3 322.817 298.991   1
  11   0   3 157.805 273.865   1
 -11   0  -3-420.412 585.091   3
  12   0   3 162.003 296.566   1
 -12   0  -3-602.993 599.680   3
 -13   0  -3 841.508 514.820   3
 -14   0  -3 230.924 436.306   3
 -15   0  -3-348.743 440.207   3
 -16   0  -3 961.268 721.916   3
 -17   0  -3 632.800 635.471   3
 -18   0  -3 63.2865 616.700   3
 -19   0  -3 841.673 743.545   3
  21   1  -3 5066.79 1089.50   1
  20   1  -3 934.078 682.542   1
  19   1  -3 162.167 505.506   1
  19  -1  -3 1579.09 857.841   1
  18   1  -3 532.920 581.994   1
  18  -1  -3 309.641 595.129   1
  17  -1  -3 433.012 569.621   1
  17   1  -3 14.3835 407.095   1
  16   1  -3 1993.54 723.432   1
  16  -1  -3 1995.04 794.798   1
  15   1  -3 1672.11 605.362   1
  15  -1  -3 1375.40 617.208   1
  14  -1  -3 1928.31 740.545   1
  14   1  -3 1036.99 603.131   1
  13   1  -3 14406.7 1483.78   1
  13  -1  -3 14307.2 1525.79   1
  12  -1  -3 11376.3 1325.16   1
  12   1  -3 9667.05 1208.99   1
  11   1  -3 30411.3 1999.37   1
  11  -1  -3 35354.4 2252.55   1
  10   1  -3 29396.2 1886.46   1
  10  -1  -3 29695.8 1985.55   1
   9   1  -3 18486.5 1421.34   1
   9  -1  -3 21355.6 1648.58   1
   8  -1  -3 31872.8 1958.67   1
   7  -1  -3 104114. 3503.28   1
   6  -1  -3 192252. 4833.61   1
   6  -1  -3 188829. 4121.35   3
   5  -1  -3 173694. 4342.88   1
  -5   1   3 184288. 4490.43   1
   5  -1  -3 179015. 3607.03   3
  -5   1   3 179249. 3439.02   2
  -4   1   3 396782. 7236.41   1
   4  -1  -3 396527. 5999.38   3
   4  -1  -3 401372. 7080.63   1
  -4   1   3 398839. 5991.30   2
  -3   1   3 324457. 5052.52   2
   3  -1  -3 340097. 5041.02   2
   3  -1  -3 344307. 5963.99   1
  -3  -1   3 316706. 4350.17   2
  -3   1   3 351919. 6177.36   1
  -2   1   3 526679. 8088.88   1
  -2   1   3 518543. 7209.42   2
   2  -1  -3 515977. 7807.22   1
   2  -1  -3 528094. 7200.32   2
   1  -1  -3 63560.6 1430.79   2
  -1   1   3 65790.0 1776.48   1
   1  -1  -3 63473.8 1554.16   1
   1   1  -3 62053.0 1054.63   2
  -1   1   3 66023.8 1449.13   2
   0   1   3 17706.7 683.285   2
   0   1   3 18897.1 734.718   1
   0  -1  -3 17261.5 678.939   2
   0  -1  -3 18900.9 497.302   3
  -1  -1  -3 272133. 3821.94   3
   1   1   3 267707. 3724.58   1
   1   1   3 263979. 3768.36   3
  -1   1  -3 260414. 3994.98   3
   1   1   3 267282. 4123.17   2
  -1  -1  -3 264838. 4139.89   2
  -2  -1  -3 340010. 5068.41   3
   2  -1   3 342014. 5164.40   3
  -2   1  -3 348672. 5096.90   3
  -2  -1  -3 343954. 5267.98   2
   2   1   3 343579. 5018.28   3
  -3  -1  -3 303304. 4970.01   3
   3  -1   3 306922. 4945.75   3
   3   1   3 309180. 4949.75   3
  -3   1  -3 306506. 4842.26   3
  -4  -1  -3 381418. 6383.50   3
  -4   1  -3 395053. 6127.38   3
   4   1   3 375212. 6360.64   3
   4  -1   3 380367. 6159.25   3
   5   1   3 276720. 5454.41   3
   5   1   3 278421. 4342.67   1
  -5  -1  -3 264119. 5308.85   3
  -5   1  -3 267533. 4270.98   1
  -5   1  -3 270416. 4946.46   3
  -6  -1  -3 295937. 6143.46   3
  -6   1  -3 303648. 5034.02   1
  -6   1  -3 304472. 5723.75   3
  -7   1  -3 57225.7 1855.30   1
  -7  -1  -3 53274.7 2345.49   3
   7   1   3 61974.4 1968.45   1
  -7   1  -3 62099.6 2258.25   3
  -8   1  -3 24684.5 1278.00   1
   8   1   3 24153.7 1278.29   1
  -8  -1  -3 19233.3 1488.04   3
  -8   1  -3 23271.9 1476.22   3
   9   1   3 14458.8 1059.91   1
  -9   1  -3 13451.5 1291.79   3
  -9  -1  -3 12407.9 1207.20   3
  10   1   3 3440.17 568.168   1
 -10   1  -3 2521.60 663.157   3
  11   1   3 4974.69 709.947   1
 -11   1  -3 3668.37 846.715   3
 -11  -1  -3 4534.93 827.720   3
  12   1   3 5600.78 766.034   1
 -12   1  -3 4937.05 923.557   3
 -12  -1  -3 7769.53 1126.02   3
 -13   1  -3 536.562 442.308   3
  13   1   3 689.945 427.440   1
 -13  -1  -3 772.393 490.952   3
 -14  -1  -3 1678.76 649.776   3
  14   1   3 2284.02 628.124   1
 -14   1  -3 1455.17 652.894   3
 -15   1  -3-437.133 626.476   3
  15   1   3 765.796 428.513   1
 -15  -1  -3 964.939 730.270   3
 -16   1  -3 8224.93 1243.81   3
 -16  -1  -3 7822.80 1260.45   3
 -17  -1  -3 6092.80 1119.16   3
 -17   1  -3 6633.44 1187.15   3
 -18   1  -3 6734.10 1227.26   3
 -18  -1  -3 10134.0 1520.13   3
 -19   1  -3 4912.18 1149.14   3
 -19  -1  -3 6162.18 1267.80   3
  21   2  -3 90.3989 482.264   1
  20   2  -3 2818.55 906.493   1
  19   2  -3 4952.87 1071.31   1
  18   2  -3 6071.07 1125.91   1
  17   2  -3 3475.05 863.466   1
  16   2  -3 8043.29 1261.03   1
  15   2  -3 16918.9 1697.77   1
  15  -2  -3 14574.7 1641.88   1
  14   2  -3 16938.3 1630.49   1
  14  -2  -3 19529.5 1862.29   1
  13   2  -3 31005.2 2135.44   1
 -13   2   3 38562.2 2284.69   3
  13  -2  -3 36247.5 2497.22   1
  12   2  -3 71585.4 3136.60   1
  12  -2  -3 74226.3 3513.04   1
 -12   2   3 72707.6 3107.68   3
  11  -2  -3 69200.5 3306.49   1
 -11   2   3 65168.7 2806.19   3
  10  -2  -3 73900.8 3291.42   1
 -10   2   3 71679.2 2850.75   3
  -9   2   3 106312. 3365.17   3
   9  -2  -3 106639. 3874.81   1
  -8   2   3 74147.9 2631.60   3
   8  -2  -3 83542.4 3231.04   1
  -7   2   3 104226. 2985.75   3
   7  -2  -3 106069. 3548.35   1
  -6   2   3 111379. 2854.19   2
  -6   2   3 113243. 2905.78   3
   6  -2  -3 119772. 3486.45   3
   6  -2  -3 118860. 3551.55   1
  -5   2   3 67693.3 1993.54   2
   5  -2  -3 71639.8 2464.00   1
   5  -2  -3 69387.1 2347.09   3
  -5   2   3 70983.6 1976.67   3
   4  -2  -3 36318.8 1438.39   3
  -4   2   3 35941.1 1537.43   1
  -4   2   3 34651.5 1296.63   2
   3  -2  -3 9910.28 633.268   2
  -3   2   3 10037.5 639.068   2
   3  -2  -3 9295.55 576.980   3
  -3   2   3 10203.7 724.167   1
   2  -2  -3 754.494 162.023   2
  -2   2   3 768.840 195.152   2
   2  -2  -3 1420.99 156.314   3
  -2   2   3 1038.16 230.723   1
  -1   2   3 21697.8 883.587   2
   1  -2  -3 22183.5 882.061   2
   0   2   3 70085.9 1712.26   2
   0  -2  -3 70852.3 1723.36   2
   1   2   3 805.839 126.222   3
   1   2   3 421.086 152.347   2
  -1   2  -3 669.779 168.604   3
  -1  -2  -3 530.696 146.346   2
  -1  -2  -3 557.671 148.967   3
  -2  -2  -3 4474.88 410.542   2
  -2  -2  -3 4876.72 453.315   3
   2  -2   3 4469.75 381.835   3
  -2   2  -3 4305.86 378.807   3
   2   2   3 4340.75 395.705   2
   2   2   3 4476.17 356.630   3
   3   2   3 10592.8 680.504   3
  -3  -2  -3 10246.2 670.954   2
   3  -2   3 10850.9 663.059   3
  -3  -2  -3 9902.56 756.100   3
  -3   2  -3 11076.5 643.256   3
  -4  -2  -3 40013.2 1691.00   3
  -4   2  -3 40509.3 1391.01   3
   4   2   3 40720.3 1655.12   3
   5   2   3 86532.4 2813.78   3
  -5   2  -3 85756.9 2322.10   3
  -5  -2  -3 90300.3 2819.17   3
  -6   2  -3 132270. 3274.43   3
  -6  -2  -3 138599. 3818.50   3
  -7   2  -3 95599.3 2861.35   3
  -7   2  -3 97058.6 2467.85   1
  -7  -2  -3 103022. 3385.35   3
  -8  -2  -3 120146. 3814.82   3
  -8   2  -3 106347. 3280.55   3
   9   2   3 170996. 3874.79   1
  -9  -2  -3 171092. 4858.29   3
  -9   2  -3 165574. 4472.63   3
 -10  -2  -3 137167. 4379.39   3
  10   2   3 129098. 3496.34   1
 -10   2  -3 128617. 4122.41   3
  11   2   3 94673.4 3040.28   1
 -11  -2  -3 92990.0 3663.46   3
 -11   2  -3 87956.5 3533.50   3
 -12  -2  -3 107676. 4039.89   3
  12   2   3 104607. 3354.23   1
 -12   2  -3 98578.7 3924.30   3
  13   2   3 78897.3 2962.31   1
 -13  -2  -3 78301.3 3524.68   3
 -13   2  -3 73089.1 3427.58   3
  14   2   3 63857.0 2728.51   1
 -14   2  -3 56602.3 3113.31   3
 -14  -2  -3 67075.1 3303.95   3
 -15   2  -3 68966.9 3508.73   3
  15   2   3 74148.3 3027.62   1
 -15  -2  -3 74184.1 3566.92   3
 -16   2  -3 41947.7 2789.33   3
 -16  -2  -3 45155.7 2844.15   3
 -17  -2  -3 32673.3 2468.65   3
 -17   2  -3 32036.5 2520.07   3
 -18  -2  -3 24173.5 2206.28   3
 -18   2  -3 25656.6 2275.64   3
 -19   2  -3 13261.5 1729.11   3
  21   3  -3-176.570 542.864   1
  20   3  -3 1163.26 579.198   1
  19   3  -3 5418.76 1099.48   1
  18   3  -3 6030.20 1155.49   1
  17   3  -3 7803.03 1213.08   1
  16   3  -3 3078.63 838.816   1
 -15   3   3 7380.04 1098.26   3
  15   3  -3 7283.48 1113.63   1
  14   3  -3 5695.02 981.149   1
 -14   3   3 6981.70 998.496   3
 -13   3   3 8457.75 1082.96   3
 -12   3   3 26340.1 1817.60   3
 -11   3   3 43981.6 2273.36   3
 -10   3   3 22022.0 1518.15   3
  -9   3   3 17985.2 1297.27   3
  -8   3   3 8996.54 889.028   3
  -8   3   3 9520.37 924.988   2
  -7   3   3 6790.98 720.819   3
  -7   3   3 7873.98 774.204   2
  -6  -3   3 1149.59 182.500   2
   6  -3  -3 1372.01 373.603   3
  -6   3   3 644.428 269.815   2
  -6   3   3 763.624 263.022   3
   5  -3  -3 11979.0 893.708   3
  -5   3   3 11317.9 848.183   2
  -5  -3   3 11610.4 474.139   2
  -5   3   3 10561.4 739.602   3
  -4   3   3 2311.01 392.524   2
   4  -3  -3 1428.01 230.270   3
  -4   3   3 1764.18 273.611   3
  -4  -3   3 1955.93 171.440   2
   3   3  -3 901.590 103.726   2
  -3   3   3 888.763 243.179   2
  -3   3   3 1057.68 178.812   3
   3  -3  -3 699.705 123.964   3
  -3  -3   3 746.503 104.872   2
   2   3  -3 5958.57 277.608   2
  -2   3   3 5453.46 525.735   2
   1  -3  -3 69958.9 1920.26   2
  -1   3   3 67632.3 1895.21   2
   1   3  -3 71964.1 1377.19   2
   0   3   3 90156.8 2160.12   2
   0  -3  -3 84224.4 2139.54   2
   1   3   3 63835.1 1313.44   3
  -1   3  -3 69003.1 1712.11   3
  -1  -3  -3 65432.6 1843.49   2
   1   3   3 68567.2 1821.71   2
  -2  -3  -3 107953. 2126.97   3
   2   3   3 109159. 2328.86   3
  -2   3  -3 109668. 2366.74   3
   2   3   3 108584. 2478.31   2
  -3  -3  -3 40420.0 1382.20   3
   3   3   3 39804.7 1548.94   3
  -3   3  -3 42338.4 1392.66   3
   3   3   3 39786.3 1409.05   2
   4   3   3 40691.4 1786.41   3
  -4   3  -3 41374.1 1483.44   3
  -4  -3  -3 40133.3 1580.63   3
  -5  -3  -3 39225.4 1744.04   3
   5   3   3 40539.6 1979.39   3
  -5   3  -3 40720.3 1546.99   3
  -6  -3  -3 56025.2 2285.77   3
  -6   3  -3 61075.1 2060.45   3
  -7  -3  -3 83953.1 2989.26   3
  -7   3  -3 84701.9 2661.95   3
  -8  -3  -3 87443.2 3175.73   3
  -8   3  -3 80893.2 2761.17   3
  -9   3  -3 40777.2 2039.06   3
  -9  -3  -3 40766.9 2215.38   3
 -10  -3  -3 23078.5 1726.33   3
 -10   3  -3 20327.2 1537.17   3
 -11  -3  -3 740.703 403.808   3
 -11   3  -3 1264.26 487.949   3
  12   3   3 1792.84 477.610   1
 -12   3  -3 1108.85 483.159   3
 -12  -3  -3 1687.12 552.354   3
 -13  -3  -3 9054.16 1238.34   3
 -13   3  -3 7166.21 1101.34   3
  13   3   3 9365.59 999.915   1
 -14  -3  -3 581.508 440.124   3
  14   3   3 483.143 334.382   1
 -14   3  -3 489.236 542.328   3
 -15   3  -3-76.3829 582.180   3
 -15  -3  -3-444.238 695.073   3
 -16   3  -3 779.246 635.911   3
 -17   3  -3 108.680 454.596   3
 -18   3  -3 2161.51 745.088   3
  20   4  -3 16391.2 1853.29   1
  19   4  -3 23324.5 2209.49   1
 -19   4   3 21361.9 2122.01   2
  18   4  -3 17809.5 1899.50   1
  17   4  -3 13366.5 1610.83   1
  16   4  -3 15398.9 1671.51   1
 -16   4   3 14481.3 1545.76   3
 -15   4   3 28815.5 2080.71   3
 -14   4   3 12920.7 1343.09   3
 -13   4   3 4449.79 809.360   3
 -12   4   3 17538.1 1467.23   3
 -12   4   3 17233.5 1612.30   2
 -11   4   3 876.181 489.728   2
 -11   4   3 1993.62 598.968   3
 -10   4   3 68.0117 386.140   2
 -10   4   3 267.571 327.996   3
  -9  -4   3 440.716 171.744   2
  -9   4   3-41.9631 411.686   2
  -9   4   3 663.805 344.377   3
  -8   4   3 3673.97 563.907   3
  -8  -4   3 3645.14 390.816   2
  -8   4   3 3526.92 591.357   2
  -7   4   3 23258.0 1306.75   3
  -7  -4   3 20865.8 865.440   2
  -7   4   3 21002.3 1354.38   2
  -6   4   3 24947.6 1259.62   3
   6  -4  -3 23074.9 1122.00   3
  -6  -4   3 23971.3 861.121   2
  -6   4   3 23065.2 1361.73   2
   5  -4  -3 52182.2 1500.35   3
  -5  -4   3 51540.4 1290.99   2
  -5   4   3 57088.9 1784.57   3
  -5   4   3 51339.6 1970.50   2
  -4   4   3 76797.4 1937.15   3
  -4   4   3 80035.8 2438.18   2
  -4  -4   3 80359.6 1669.27   2
   4  -4  -3 80646.2 1663.44   3
  -3   4   3 54267.1 1367.32   3
  -3  -4   3 59330.7 1408.83   2
   3   4  -3 59898.4 1254.67   2
  -3   4   3 59343.4 1964.53   2
   3  -4  -3 58822.3 1135.32   3
   2   4  -3 99520.9 1894.43   2
  -2   4   3 101958. 2627.64   2
  -1   4   3 133569. 3083.84   2
   1   4  -3 134202. 2449.43   2
   0   4  -3 59797.9 1513.23   2
   0   4   3 57989.2 1844.42   2
   1   4   3 31889.9 1048.15   3
  -1   4  -3 34134.8 1222.99   3
   1   4   3 32539.1 1319.43   2
  -2   4  -3 78011.0 1994.12   3
   2   4   3 72592.5 2085.66   2
   2   4   3 78430.4 2101.75   3
   3   4   3 34532.0 1370.56   2
  -3   4  -3 34345.7 1295.47   3
   3   4   3 37082.8 1600.52   3
   4   4   3 36496.8 1457.43   2
  -4   4  -3 37397.4 1424.74   3
   4   4   3 41252.7 1883.66   3
  -5   4  -3 46866.3 1704.93   3
   5   4   3 51483.0 2305.19   3
  -6   4  -3 55258.2 1964.46   3
  -7   4  -3 21581.9 1280.95   3
  -8   4  -3 527.822 344.657   3
  -9   4  -3 2786.37 637.463   3
 -10   4  -3 5773.68 885.571   3
 -11   4  -3 160.317 411.829   3
 -12   4  -3 371.913 526.863   3
 -13   4  -3 704.559 529.462   3
 -14   4  -3 674.317 552.003   3
  14   4   3 1932.73 556.617   1
 -15   4  -3-947.567 724.432   3
 -16   4  -3 271.504 618.483   3
 -17   4  -3-41.7717 711.696   3
 -18   4  -3-342.710 667.742   3
  20   5  -3 3717.41 945.546   1
  19   5  -3 3929.37 985.611   1
  18   5  -3 8859.41 1365.68   1
 -18   5   3 9168.74 1451.13   2
  17   5  -3 20013.9 1922.68   1
 -17   5   3 23270.5 1982.54   3
 -17   5   3 23721.8 2249.23   2
 -16   5   3 37015.2 2382.16   3
 -16   5   3 31083.2 2548.64   2
 -15   5   3 57320.4 2919.17   3
 -15   5   3 54136.1 3285.05   2
 -14   5   3 81411.2 3408.99   3
 -14   5   3 83751.3 3958.46   2
 -13   5   3 53816.1 3093.20   2
 -13   5   3 54917.0 2694.45   3
 -12   5   3 83102.3 3218.15   3
 -12   5   3 81065.9 3672.10   2
 -11   5   3 45294.7 2571.90   2
 -11   5   3 49002.6 2335.50   3
 -10   5   3 59246.5 2857.98   2
 -10   5   3 66811.0 2643.55   3
  -9   5   3 82752.1 3192.61   2
  -9   5   3 86009.3 2905.43   3
  -8   5   3 95803.0 3276.31   2
  -8   5   3 99218.3 3006.28   3
  -7   5   3 74325.8 2436.76   3
  -7  -5   3 64592.8 1800.82   2
  -7   5   3 70326.8 2676.44   2
   6  -5  -3 82693.6 2203.89   3
  -6   5   3 93839.8 2633.26   3
  -6  -5   3 90653.1 2108.88   2
  -6   5   3 89576.1 2959.36   2
  -5   5   3 19138.8 1049.24   3
   5  -5  -3 21549.3 907.408   3
  -5   5   3 21144.3 1351.28   2
  -5  -5   3 22093.8 937.096   2
  -4   5   3 19038.6 943.988   3
  -4   5   3 24095.0 1386.58   2
  -4  -5   3 24728.2 998.129   2
   4   5  -3 23407.7 842.958   2
  -3   5   3 562.231 167.836   3
  -3   5   3 1144.83 396.430   2
  -2   5   3 3588.67 258.552   3
  -2   5   3 4257.91 582.903   2
   2   5  -3 5059.67 415.138   2
   1   5  -3 2013.75 283.694   2
  -1   5   3 1911.11 432.558   2
   0   5  -3 1051.33 261.520   2
   0   5   3 306.053 98.8962   3
   0   5   3 656.739 313.200   2
   0   5   3 502.249 100.835   3
  -1   5  -3 10453.9 693.655   2
  -1   5  -3 10190.9 705.690   3
   1   5   3 11222.8 608.425   3
   1   5   3 10737.5 809.579   2
  -2   5  -3 17833.2 973.268   2
  -2   5  -3 19233.1 981.908   3
   2   5   3 18430.3 963.350   3
   2   5   3 17149.3 1030.71   2
   3   5   3 15856.6 1002.56   2
   3   5   3 15155.9 997.042   3
  -3   5  -3 15489.3 918.639   3
  -4   5  -3 22154.0 1138.53   3
   4   5   3 22043.4 1204.89   2
   4   5   3 22779.8 1380.20   3
  -5   5  -3 22760.4 1204.82   3
  -6   5  -3 26608.9 1384.98   3
  -7   5  -3 10494.1 932.101   3
  -8   5  -3 1122.60 326.968   3
  -9   5  -3 9050.13 981.339   3
 -10   5  -3 7029.93 932.654   3
 -11   5  -3 3662.07 742.557   3
 -12   5  -3 1516.81 647.756   3
 -13   5  -3-56.9811 463.573   3
 -14   5  -3 710.875 578.403   3
 -15   5  -3 4290.73 1000.63   3
 -16   5  -3 6264.90 1245.55   3
 -17   5  -3 6207.62 1285.56   3
 -18   5  -3 2412.05 858.573   3
  19   6  -3 1620.40 681.707   1
  18   6  -3 1426.63 714.671   1
 -17   6   3-83.7054 617.531   2
 -17   6   3 464.399 452.531   3
 -16   6   3 651.332 587.678   3
 -16   6   3 708.460 669.416   2
 -15   6   3 5226.44 1182.72   2
 -15   6   3 5700.09 975.241   3
 -14   6   3 2498.68 800.797   2
 -14   6   3 2201.83 660.716   3
 -13   6   3 11367.8 1482.42   2
 -13   6   3 12067.5 1243.22   3
 -12   6   3 35684.3 2085.88   3
 -12   6   3 36321.1 2491.12   2
 -11   6   3 35015.8 2317.48   2
 -11   6   3 36354.9 2003.08   3
 -10   6   3 34031.6 2190.92   2
 -10   6   3 34807.4 1889.65   3
  -9   6   3 57120.6 2718.24   2
  -9   6   3 59891.4 2397.30   3
  -8   6   3 78772.5 2655.52   3
  -8   6   3 72500.3 2963.48   2
  -7   6   3 130551. 3959.60   2
  -7   6   3 133732. 3433.14   3
  -6   6   3 114144. 3494.36   2
   6  -6  -3 103521. 2384.10   3
  -6  -6   3 98539.3 2552.40   2
  -6   6   3 114116. 2929.09   3
  -5   6   3 90672.4 2413.77   3
  -5  -6   3 86838.7 2329.78   2
  -5   6   3 94270.4 3064.80   2
   4   6  -3 96516.1 2204.77   2
  -4  -6   3 91017.4 2456.35   2
  -4   6   3 92532.2 2974.54   2
  -4   6   3 96970.4 2277.63   3
  -3   6   3 62455.8 2329.40   2
  -3   6   3 60893.3 1510.89   3
   3   6  -3 67325.4 1772.84   2
  -2   6   3 43291.3 1890.94   2
   2   6  -3 47265.4 1475.94   2
  -2   6   3 42136.5 1039.20   3
  -1   6   3 30679.0 1549.97   2
  -1   6   3 31131.3 781.374   3
   1   6  -3 33354.9 1261.26   2
   0   6   3 41693.2 1072.62   3
   0   6  -3 43088.4 1522.45   2
   0   6   3 41409.4 933.922   3
   0   6   3 43949.6 1809.89   2
   1   6   3 25874.6 981.677   3
  -1   6  -3 26471.4 1231.55   2
   1   6   3 25157.3 1368.60   2
  -1   6  -3 27460.1 1242.86   3
  -2   6  -3 6449.38 635.246   2
  -2   6  -3 6767.31 652.872   3
   2   6   3 4787.41 586.951   2
   2   6   3 5444.99 505.949   3
  -3   6  -3 721.147 307.380   3
  -3   6  -3 466.034 288.448   2
   3   6   3 729.634 339.781   2
   3   6   3 22.5616 221.774   3
  -4   6  -3 2738.44 489.586   2
   4   6   3 2384.50 498.411   3
  -4   6  -3 2000.05 410.797   3
   4   6   3 2865.53 487.681   2
   5   6   3 15263.3 1076.84   2
  -5   6  -3 15944.4 1051.24   3
  -6   6  -3 26834.7 1432.25   3
  -7   6  -3 43446.2 1947.64   3
  -8   6  -3 47859.0 2164.52   3
  -9   6  -3 51262.2 2339.08   3
 -10   6  -3 67443.9 2884.43   3
 -11   6  -3 39797.9 2293.03   3
 -12   6  -3 58639.2 2971.57   3
 -13   6  -3 51698.6 2945.30   3
 -14   6  -3 32571.2 2431.05   3
 -15   6  -3 25927.4 2265.64   3
 -16   6  -3 16823.0 1866.36   3
 -17   6  -3 6634.77 1251.95   3
 -16   7   3 7441.92 1369.44   2
 -15   7   3 9926.70 1524.47   2
 -14   7   3 8047.34 1398.37   2
 -13   7   3 19273.2 1920.97   2
 -12   7   3 9971.41 1368.74   2
 -11   7   3 6403.28 1076.35   2
 -11   7   3 7916.29 982.304   3
 -10   7   3 2054.72 592.951   2
 -10   7   3 4186.03 698.363   3
  -9   7   3 690.724 589.887   2
  -9   7   3 899.205 448.985   3
  -8   7   3 5298.96 902.855   2
  -8   7   3 5629.59 729.528   3
  -7   7   3 11493.2 1152.20   2
  -7   7   3 10859.9 899.771   3
  -6   7   3 16857.4 1071.20   3
  -6   7   3 19533.1 1482.61   2
   5   7  -3 38967.8 1413.76   2
  -5   7   3 37962.2 1999.52   2
  -5   7   3 39604.1 1524.48   3
   4   7  -3 43589.6 1521.62   2
  -4   7   3 43332.7 1437.82   3
  -4   7   3 41264.0 2034.50   2
  -3   7   3 52182.9 1415.42   3
  -3   7   3 50252.1 2199.43   2
   3   7  -3 52970.5 1725.60   2
   2   7  -3 99702.2 2512.96   2
  -2   7   3 95937.1 3059.83   2
  -2   7   3 91831.6 1855.20   3
  -1   7   3 89899.4 2902.98   2
   1   7  -3 90586.3 2438.44   2
  -1   7   3 87037.1 1688.14   3
   0   7   3 157179. 2547.51   3
   0   7   3 150344. 2718.13   3
   0   7  -3 158797. 3517.73   2
   0   7   3 160404. 4023.18   2
  -1   7  -3 208469. 4292.67   2
  -1   7  -3 201409. 4160.17   3
   1   7   3 205190. 4666.04   2
   2   7   3 157261. 3352.22   3
  -2   7  -3 158814. 3663.63   3
   2   7   3 164461. 4024.11   2
  -2   7  -3 155622. 3752.25   2
  -3   7  -3 150647. 3582.40   3
   3   7   3 146817. 3550.11   3
  -3   7  -3 147921. 3718.17   2
   3   7   3 145015. 3827.32   2
  -4   7  -3 125794. 3291.69   3
   4   7   3 125407. 3509.31   2
  -4   7  -3 125583. 3496.73   2
   5   7   3 108469. 3272.81   2
  -5   7  -3 108849. 3094.28   3
  -5   7  -3 111167. 3398.89   2
  -6   7  -3 93707.0 2943.10   3
  -6   7  -3 96410.6 3279.66   2
  -7   7  -3 65082.4 2497.67   3
  -7   7  -3 66075.5 2794.15   2
  -8   7  -3 70903.2 2773.13   3
  -9   7  -3 27374.3 1757.51   3
 -10   7  -3 9579.97 1144.21   3
 -11   7  -3 4548.37 852.489   3
 -12   7  -3 851.432 484.892   3
 -13   7  -3 174.919 488.036   3
 -14   7  -3 1359.71 620.349   3
 -15   7  -3 1196.10 624.856   3
 -16   7  -3 2670.59 839.957   3
 -17   7  -3 10951.7 1601.02   3
 -14   8   3 1791.94 847.937   2
 -13   8   3 3487.94 1004.42   2
 -12   8   3 3107.88 868.347   2
 -11   8   3 9176.50 1380.47   2
 -10   8   3 17193.6 1712.98   2
  -9   8   3 19730.1 1746.55   2
  -8   8   3 13382.0 1399.79   2
  -7   8   3 20167.0 1632.02   2
  -6   8   3 28845.2 1872.32   2
   5   8  -3 33064.4 1427.15   2
  -5   8   3 33800.6 1985.97   2
   4   8  -3 31516.6 1391.20   2
  -4   8   3 28034.7 1779.59   2
  -3   8   3 31514.9 1850.43   2
   3   8  -3 32907.1 1454.04   2
  -2   8   3 36655.3 1941.92   2
   2   8  -3 39097.2 1616.69   2
  -1   8   3 22658.2 1486.64   2
   1   8  -3 24640.2 1288.45   2
   0   8  -3 11699.2 908.588   3
   0   8  -3 12335.0 938.176   2
   0   8   3 10941.9 1039.02   2
  -1   8  -3 2671.68 465.870   2
  -1   8  -3 2846.57 468.506   3
   1   8   3 3544.10 635.516   2
  -2   8  -3 363.602 283.666   2
   2   8   3 218.378 293.455   2
  -2   8  -3 25.6818 248.206   3
   3   8   3 987.340 367.033   2
  -3   8  -3 1258.99 374.506   2
  -3   8  -3 2274.29 455.786   3
  -4   8  -3 1134.06 405.318   2
  -4   8  -3 1855.41 501.425   3
   4   8   3 1341.35 439.640   2
   5   8   3 2916.94 568.146   2
  -5   8  -3 2672.84 524.311   3
  -5   8  -3 1674.96 477.467   2
  -6   8  -3 4089.85 721.933   2
  -6   8  -3 5277.43 704.261   3
  -7   8  -3 8303.71 1044.63   2
  -7   8  -3 7545.41 869.435   3
  -8   8  -3 17756.5 1407.14   3
  -8   8  -3 19769.1 1634.01   2
  -9   8  -3 28739.4 1853.83   3
  -9   8  -3 32364.1 2191.69   2
 -10   8  -3 31336.9 2260.58   2
 -10   8  -3 35206.1 2170.42   3
 -11   8  -3 35914.7 2296.76   3
 -11   8  -3 37772.0 2544.36   2
 -12   8  -3 22569.3 1921.45   3
 -12   8  -3 24976.9 2105.54   2
 -13   8  -3 21097.8 2008.30   2
 -13   8  -3 26886.5 2209.60   3
 -14   8  -3 24007.4 2190.55   3
 -14   8  -3 23298.6 2151.19   2
 -15   8  -3 22217.5 2193.38   3
 -16   8  -3 17624.1 1978.10   3
 -13   9   3 3739.00 1012.25   2
 -12   9   3 3216.23 912.883   2
 -11   9   3 4123.67 892.794   2
 -10   9   3 5045.95 1006.11   2
  -9   9   3 6715.72 1089.90   2
  -8   9   3 12995.9 1424.27   2
  -7   9   3 10225.3 1192.97   2
  -6   9   3 3841.38 754.068   2
  -5   9   3 5334.59 853.422   2
   4   9  -3 438.941 246.903   2
  -4   9   3 430.700 452.648   2
  -3   9   3 558.219 442.330   2
   3   9  -3 612.141 315.782   2
  -2   9   3 227.028 368.434   2
   2   9  -3 68.5745 239.111   2
   1   9  -3 2043.58 488.620   2
   1   9  -3 1937.20 460.710   3
  -1   9   3 1570.96 514.068   2
   0   9  -3 2726.63 539.649   2
   0   9   3 2064.50 562.163   2
   0   9  -3 2595.55 532.896   3
  -1   9  -3 1458.37 391.600   2
  -1   9  -3 1756.72 438.128   3
   1   9   3 1505.96 491.012   2
  -2   9  -3 6696.28 821.219   2
  -2   9  -3 7016.05 789.723   3
   2   9   3 5192.12 807.183   2
  -3   9  -3 8638.98 961.184   2
  -3   9  -3 7765.12 857.061   3
   3   9   3 7496.62 927.806   2
  -4   9  -3 13227.4 1106.99   3
   4   9   3 12719.2 1210.31   2
  -4   9  -3 10879.9 1071.38   2
   5   9   3 4541.54 775.695   2
  -5   9  -3 5884.53 841.199   2
  -5   9  -3 7343.94 867.219   3
  -6   9  -3 4719.11 827.536   2
  -6   9  -3 5566.80 792.570   3
  -7   9  -3 13700.7 1244.97   3
  -7   9  -3 14320.6 1403.64   2
  -8   9  -3 7691.09 1094.32   2
  -8   9  -3 7501.66 967.264   3
  -9   9  -3 5185.35 850.227   3
  -9   9  -3 5733.57 983.405   2
 -10   9  -3 11124.2 1275.42   3
 -10   9  -3 7824.74 1182.21   2
 -11   9  -3 8084.71 1179.54   3
 -11   9  -3 8181.45 1250.24   2
 -12   9  -3 4150.85 956.389   3
 -12   9  -3 2659.72 765.283   2
 -13   9  -3 1278.67 786.079   2
 -11  10   3 82.6092 584.239   2
 -10  10   3 868.065 586.355   2
  -9  10   3 443.365 618.609   2
  -8  10   3 933.581 534.543   2
  -7  10   3 335.637 404.932   2
  -6  10   3 2716.77 724.431   2
  -5  10   3 3766.15 833.891   2
  -4  10   3 4019.84 830.132   2
  -3  10   3 6502.03 989.046   2
  -2  10   3 6308.59 923.842   2
   1  10  -3 5718.51 737.135   2
   1  10  -3 5382.04 718.688   3
  -1  10   3 4443.32 815.326   2
   0  10   3 6789.27 994.520   2
   0  10  -3 5813.56 730.247   3
   0  10  -3 5551.54 722.222   2
  -1  10  -3 10173.2 956.428   3
  -1  10  -3 10129.1 1008.73   2
   1  10   3 9388.89 1101.22   2
  -2  10  -3 7279.76 888.444   2
  -2  10  -3 7925.00 833.558   3
   2  10   3 7859.92 1017.62   2
  -3  10  -3 4061.59 650.299   3
  -3  10  -3 4246.21 708.058   2
   3  10   3 5027.83 826.803   2
   4  10   3 2626.70 653.510   2
  -4  10  -3 3206.60 622.986   3
  -4  10  -3 3052.27 668.859   2
   5  10   3 4076.09 745.905   2
  -5  10  -3 3742.28 645.597   3
  -5  10  -3 4364.36 794.893   2
  -6  10  -3 519.693 442.758   2
  -7  10  -3 538.368 500.537   2
  -8  10  -3 2742.83 739.559   2
  -9  10  -3 2553.47 744.307   2
 -10  10  -3 968.978 480.406   2
 -11  10  -3-24.8609 515.182   2
  -8  11   3 4005.72 986.171   2
  -7  11   3 3491.63 840.307   2
  -6  11   3 2320.97 731.565   2
  -5  11   3 4566.60 896.659   2
  -4  11   3 3385.16 818.584   2
  -3  11   3-627.980 545.240   2
  -2  11   3 95.0527 432.623   2
  -1  11   3 575.516 494.137   2
   0  11   3-206.135 335.823   2
   1  11   3 223.775 378.862   2
  -2  11  -3-112.285 366.918   2
   2  11   3 395.335 383.262   2
   3  11   3-149.956 352.588   2
  -3  11  -3-131.254 330.737   2
   4  11   3-11.3353 358.257   2
  -4  11  -3-351.803 366.007   2
   5  11   3-123.102 368.137   2
  -5  11  -3-136.981 412.224   2
  -6  11  -3 173.876 353.232   2
  -7  11  -3-235.385 410.846   2
  -8  11  -3 88.1397 422.160   2
  -9  11  -3 360.405 548.187   2
  -5  12   3-173.761 452.175   2
  -4  12   3-207.882 503.769   2
  -3  12   3 1569.35 647.821   2
  -2  12   3 1897.43 631.239   2
  -1  12   3-40.7931 407.704   2
   0  12   3 187.664 417.274   2
   1  12   3-310.536 419.018   2
   2  12   3 581.309 430.611   2
   3  12   3 288.488 483.964   2
   4  12   3 612.119 526.867   2
  -5  12  -3-16.6564 373.506   2
  -6  12  -3 530.851 550.717   2
  -7  12  -3 222.811 464.226   2
  21   0  -4 5406.14 1155.57   1
  20   0  -4 10207.0 1499.03   1
  19   0  -4 18214.9 1942.19   1
  18   0  -4 40136.4 2801.04   1
  17   0  -4 71780.2 3698.31   1
  16   0  -4 111680. 4578.90   1
  15   0  -4 107782. 4463.79   1
  14   0  -4 192480. 6059.28   1
  13   0  -4 255751. 6966.32   1
  12   0  -4 252911. 6749.59   1
  11   0  -4 238875. 6413.72   1
  10   0  -4 329545. 7615.64   1
   9   0  -4 240548. 6071.30   1
   8   0  -4 341126. 7357.99   1
   7   0  -4 278735. 6241.34   1
   6   0  -4 209150. 5037.31   1
  -6   0   4 214994. 3896.55   2
   5   0  -4 88722.3 2855.97   1
  -5   0   4 82947.1 1938.41   2
   4   0  -4 20041.7 1223.12   1
  -4   0   4 19981.5 775.040   2
   3   0  -4 64022.1 1383.72   2
  -3   0   4 64647.8 1443.24   2
  -2   0   4 90346.4 1723.57   2
   2   0  -4 90757.5 1715.12   2
  -1   0   4 30079.4 866.440   2
   1   0  -4 30294.6 856.162   2
   0   0  -4 14399.0 603.246   2
  -1   0  -4 16226.6 649.059   3
   2   0   4 356772. 5394.43   3
  -2   0  -4 366667. 5395.64   3
  -3   0  -4 275101. 4534.63   3
   3   0   4 273718. 4569.76   3
   4   0   4 315674. 5464.92   3
  -4   0  -4 334935. 5505.97   3
  -5   0  -4 245747. 4728.42   3
  -6   0  -4 140263. 3497.29   3
  -7   0  -4 328159. 6410.86   3
  -8   0  -4 306478. 6487.65   3
  -9   0  -4 239635. 5831.19   3
 -10   0  -4 226019. 5897.90   3
 -11   0  -4 172660. 5237.84   3
 -12   0  -4 120112. 4360.78   3
 -13   0  -4 63679.7 3178.68   3
 -14   0  -4 57203.4 3109.88   3
 -15   0  -4 24253.9 2063.19   3
 -16   0  -4 13124.9 1593.55   3
 -17   0  -4 12630.0 1614.24   3
 -18   0  -4 5723.39 1161.76   3
 -19   0  -4 936.643 657.796   3
  21   1  -4 11795.8 1625.18   1
  20  -1  -4 21435.8 2196.66   1
  20   1  -4 17927.7 1982.43   1
  19   1  -4 13220.4 1665.00   1
  19  -1  -4 12539.7 1690.37   1
  18  -1  -4 14340.6 1691.89   1
  18   1  -4 12780.0 1652.23   1
  17   1  -4 5509.86 1086.80   1
  17  -1  -4 7182.43 1279.78   1
  16  -1  -4 8074.46 1288.62   1
  16   1  -4 5968.76 1060.69   1
  15  -1  -4 1981.49 649.153   1
  15   1  -4 2894.13 720.146   1
  14   1  -4 2312.65 723.814   1
  14  -1  -4 3141.56 861.567   1
  13   1  -4 7916.72 1185.10   1
  13  -1  -4 5984.39 1068.92   1
  12   1  -4 3491.36 815.059   1
  12  -1  -4 3212.61 728.551   1
  11   1  -4 18203.7 1551.67   1
  11  -1  -4 18630.6 1684.83   1
  10   1  -4 37236.9 2165.54   1
  10  -1  -4 38889.5 2369.96   1
   9   1  -4 58288.9 2632.11   1
   9  -1  -4 60471.0 2889.21   1
   8  -1  -4 137343. 4344.63   1
   7  -1  -4 178493. 4838.37   1
  -7   1   4 163190. 3666.10   2
   6  -1  -4 315163. 5562.36   3
   6  -1  -4 318675. 6801.35   1
  -6   1   4 314582. 5447.05   2
   5  -1  -4 402120. 6162.35   3
  -5  -1   4 398267. 5577.48   2
  -5   1   4 383187. 6148.16   2
  -4   1   4 251912. 4377.98   2
  -4   1   4 270765. 5770.62   1
   4  -1  -4 254767. 5421.94   1
   4  -1  -4 262889. 4323.02   2
  -4  -1   4 261482. 3707.09   2
  -3   1   4 346495. 6636.46   1
   3  -1  -4 346109. 6268.70   1
   3   1  -4 343180. 4548.14   2
   3  -1  -4 346822. 5253.23   2
  -3  -1   4 346534. 4581.70   2
  -3   1   4 349031. 5320.84   2
  -2   1   4 320100. 5935.35   1
   2  -1  -4 316891. 5540.05   1
   2  -1  -4 319592. 4842.14   2
   2   1  -4 319834. 4215.62   2
  -2   1   4 311778. 4876.02   2
   1   1  -4 146611. 2272.55   2
  -1   1   4 149443. 3321.63   1
   1  -1  -4 146644. 2920.41   1
   1  -1  -4 150701. 2710.62   2
  -1   1   4 149255. 2711.68   2
   0   1   4 389974. 5832.93   2
   0   1   4 384972. 6170.16   1
   0  -1  -4 407875. 5360.01   3
   0  -1  -4 389749. 5609.67   1
   0  -1  -4 391546. 5818.77   2
  -1  -1  -4 411691. 5657.70   3
   1   1   4 415428. 6064.95   2
  -1   1  -4 414863. 5922.98   3
   1   1   4 404446. 5605.16   3
  -1  -1  -4 414282. 6080.39   2
  -2   1  -4 130094. 2572.31   3
   2   1   4 127074. 2420.94   3
   2  -1   4 130153. 2577.23   3
  -2  -1  -4 131697. 2486.25   3
  -2  -1  -4 132547. 2718.89   2
  -3  -1  -4 114952. 2515.71   3
   3   1   4 118764. 2482.95   3
   3  -1   4 110390. 2517.14   3
  -3   1  -4 119168. 2502.05   3
  -4   1  -4 77118.0 2041.77   3
   4   1   4 71346.7 2054.31   3
  -4  -1  -4 75359.4 2142.19   3
  -5   1  -4 59466.2 1962.45   3
   5   1   4 57711.8 1295.04   1
  -5  -1  -4 58433.1 2036.72   3
  -5   1  -4 57506.3 1399.70   1
  -6   1  -4 13714.8 978.454   3
  -6  -1  -4 14777.0 1086.58   3
   6   1   4 15388.9 738.459   1
  -6   1  -4 15076.0 736.752   1
  -7  -1  -4 4154.68 644.996   3
  -7   1  -4 4299.79 447.069   1
  -7   1  -4 5298.29 704.485   3
   7   1   4 4948.99 474.418   1
  -8   1  -4 795.055 248.416   1
   8   1   4 898.384 260.490   1
  -8   1  -4 922.490 437.082   3
  -8  -1  -4 520.019 362.862   3
  -9   1  -4 6955.90 896.379   3
  -9   1  -4 7320.83 699.520   1
  -9  -1  -4 7208.30 896.224   3
   9   1   4 7528.70 703.027   1
 -10  -1  -4 17115.6 1464.62   3
  10   1   4 21382.8 1263.66   1
 -10   1  -4 19853.1 1546.36   3
  11   1   4 31601.4 1637.51   1
 -11   1  -4 28092.8 1953.29   3
 -11  -1  -4 25689.8 1896.02   3
 -12   1  -4 28534.5 2082.76   3
 -12  -1  -4 28950.0 2064.46   3
  12   1   4 32533.4 1774.73   1
  13   1   4 28976.0 1737.95   1
 -13  -1  -4 26924.0 2039.23   3
 -13   1  -4 24848.5 1998.53   3
 -14  -1  -4 21165.6 1896.64   3
  14   1   4 26750.9 1716.00   1
 -14   1  -4 20572.1 1833.73   3
 -15  -1  -4 33383.4 2371.68   3
 -15   1  -4 31603.5 2363.39   3
 -16   1  -4 26208.4 2222.79   3
 -16  -1  -4 24991.6 2136.80   3
 -17   1  -4 21687.6 2090.57   3
 -17  -1  -4 26240.0 2251.82   3
 -18   1  -4 13901.2 1750.64   3
 -18  -1  -4 16620.8 1866.98   3
 -19  -1  -4 16972.3 1884.25   3
  21   2  -4 711.814 602.778   1
  20   2  -4 445.952 670.463   1
  19   2  -4 2609.41 875.114   1
  18   2  -4 876.203 596.161   1
  17   2  -4-227.582 604.206   1
  16  -2  -4 519.015 579.528   1
  16   2  -4 1780.03 681.008   1
  15   2  -4 4907.46 964.846   1
  15  -2  -4 4724.37 1039.76   1
  14   2  -4 6024.83 1028.68   1
  14  -2  -4 4009.75 950.595   1
  13  -2  -4 7645.62 1188.08   1
  13   2  -4 6987.03 1033.22   1
  12   2  -4 17864.9 1617.76   1
  12  -2  -4 18872.9 1809.15   1
  11  -2  -4 7354.43 1134.72   1
  10  -2  -4 4160.22 863.189   1
   9  -2  -4 1455.52 723.651   1
  -9   2   4 1836.35 483.184   2
  -8   2   4 1930.01 466.908   2
   8  -2  -4 3600.17 874.086   1
  -7   2   4 4912.85 612.035   2
   7  -2  -4 4784.86 806.600   1
  -6   2   4 2917.13 461.867   2
   6  -2  -4 3347.16 492.094   3
   5  -2  -4 1781.05 581.919   1
   5  -2  -4 1413.41 329.641   3
   4  -2  -4 9931.43 610.800   3
   4  -2  -4 10804.3 895.043   1
   4  -2  -4 10217.3 711.472   2
  -4   2   4 11119.3 742.396   2
  -3   2   4 53082.3 1913.09   1
   3  -2  -4 48592.4 1512.24   2
  -3   2   4 47970.4 1541.80   2
   3  -2  -4 49860.1 1222.04   3
  -2   2   4 34638.4 1230.05   2
  -2   2   4 34289.3 1400.17   1
   2  -2  -4 32882.7 1194.20   2
  -1   2   4 8220.36 573.734   2
  -1   2   4 7831.58 576.766   1
   1  -2  -4 7981.05 555.452   2
   0  -2  -4 184598. 3444.25   2
   0  -2  -4 190900. 2718.32   3
   0   2   4 185491. 3351.61   1
   0   2   4 180252. 3395.13   2
   1   2   4 100301. 2301.12   2
   1   2   4 96732.2 1740.05   3
  -1   2  -4 103993. 2207.95   3
  -1  -2  -4 103349. 1900.24   3
  -1  -2  -4 101009. 2338.31   2
  -2  -2  -4 64895.7 1824.16   2
   2   2   4 63635.6 1773.33   2
  -2   2  -4 63927.0 1690.43   3
   2   2   4 65008.9 1489.02   3
  -2  -2  -4 64661.7 1641.68   3
   3   2   4 117273. 2519.19   3
  -3   2  -4 122912. 2627.96   3
  -3  -2  -4 118932. 2769.24   3
   4   2   4 60111.1 1885.64   3
  -4   2  -4 60144.0 1822.15   3
  -4  -2  -4 59521.9 2065.15   3
  -5   2  -4 58048.8 1896.21   3
   5   2   4 59536.4 2116.34   3
  -5  -2  -4 60013.8 2258.06   3
  -6   2  -4 87865.3 2553.63   3
  -6  -2  -4 83685.6 2929.84   3
  -7   2  -4 32746.8 1615.63   3
  -7   2  -4 33062.7 1286.12   1
  -7  -2  -4 32633.0 1861.07   3
   8   2   4 16758.0 951.031   1
  -8  -2  -4 16298.8 1368.45   3
  -8   2  -4 17114.3 1264.06   3
  -9   2  -4 5230.56 802.083   3
   9   2   4 5720.42 608.677   1
  -9  -2  -4 3941.54 773.401   3
 -10   2  -4 838.725 545.141   3
  10   2   4 545.800 261.981   1
 -10  -2  -4 1949.91 600.268   3
 -11   2  -4-329.047 336.298   3
 -11  -2  -4 177.350 422.965   3
  11   2   4 22.4747 216.339   1
 -12   2  -4 371.316 383.722   3
  12   2   4 997.331 368.237   1
 -12  -2  -4 651.488 454.804   3
 -13   2  -4-749.065 595.438   3
  13   2   4 127.384 319.877   1
 -13  -2  -4 145.484 483.912   3
 -14   2  -4 3534.24 811.414   3
 -14  -2  -4 2842.17 742.339   3
 -15   2  -4 6596.54 1170.96   3
 -15  -2  -4 7243.17 1155.06   3
 -16   2  -4 11996.4 1551.82   3
 -16  -2  -4 11462.2 1496.42   3
 -17  -2  -4 29792.7 2377.43   3
 -17   2  -4 26363.6 2300.93   3
 -18  -2  -4 26995.0 2332.36   3
 -18   2  -4 23923.5 2256.14   3
 -19  -2  -4 18264.1 1984.91   3
 -20   3   4 971.906 754.402   2
  20   3  -4 58.3775 554.956   1
  19   3  -4-676.075 664.546   1
 -19   3   4 1698.91 912.533   2
  18   3  -4 701.654 646.570   1
  17   3  -4 1598.58 786.080   1
  16   3  -4 3183.26 877.550   1
  15   3  -4 2958.89 805.999   1
  14   3  -4 1001.47 658.068   1
 -13   3   4 12407.5 1388.00   2
 -12   3   4 3281.18 805.068   2
 -11   3   4 6440.42 946.673   2
 -10   3   4 4217.31 753.832   2
  -9   3   4 1431.24 476.277   2
  -8   3   4 1684.04 471.042   2
  -7   3   4 1081.20 401.032   2
  -6   3   4 276.444 219.602   2
   6  -3  -4 330.665 299.641   3
  -6  -3   4 523.010 104.641   2
   5  -3  -4 41493.6 1738.97   3
  -5   3   4 45993.7 1748.91   2
   4  -3  -4 1755.80 310.229   3
  -4   3   4 245.975 207.588   2
  -3   3   4 2716.69 410.394   2
   3  -3  -4 2734.38 289.011   3
   2   3  -4 432.417 84.3448   2
  -2   3   4 549.877 217.616   1
  -2   3   4 506.790 253.265   2
  -1   3   4 1872.45 360.486   2
   0   3   4 6823.81 580.628   2
   1   3   4 62666.4 1165.10   3
  -1   3  -4 59615.6 1665.66   3
   1   3   4 60071.5 1785.89   2
  -1  -3  -4 58365.5 1395.55   3
   2   3   4 53285.9 1704.70   2
  -2   3  -4 52362.5 1592.82   3
   2   3   4 52040.2 1316.97   3
  -2  -3  -4 51912.7 1557.49   3
   3   3   4 57108.5 1784.47   2
  -3   3  -4 53485.7 1674.27   3
   3   3   4 54747.6 1609.62   3
  -3  -3  -4 51021.8 1777.25   3
   4   3   4 105920. 2724.48   3
  -4   3  -4 104123. 2564.77   3
  -4  -3  -4 104518. 2934.83   3
  -5   3  -4 122136. 2976.68   3
   5   3   4 122335. 3329.37   3
  -5  -3  -4 127695. 3494.17   3
  -6   3  -4 93921.8 2673.21   3
  -6  -3  -4 100405. 3228.33   3
  -7  -3  -4 127291. 3856.47   3
  -7   3  -4 118982. 3292.63   3
  -8   3  -4 114282. 3376.21   3
  -8  -3  -4 121809. 3906.66   3
  -9  -3  -4 105817. 3702.33   3
  -9   3  -4 102423. 3332.63   3
 -10  -3  -4 100552. 3737.60   3
 -10   3  -4 96620.6 3422.31   3
 -11  -3  -4 50974.9 2665.88   3
  11   3   4 48762.7 2005.11   1
 -11   3  -4 47905.4 2514.40   3
 -12   3  -4 36140.9 2298.02   3
  12   3   4 36586.9 1841.74   1
 -12  -3  -4 37207.3 2403.10   3
  13   3   4 68347.4 2633.48   1
 -13   3  -4 63917.6 3234.42   3
 -13  -3  -4 64524.9 3219.98   3
 -14  -3  -4 60760.5 3187.21   3
 -14   3  -4 48871.8 2963.05   3
 -15   3  -4 28277.0 2324.97   3
 -15  -3  -4 35066.4 2482.32   3
 -16  -3  -4 29762.2 2357.89   3
 -16   3  -4 25677.8 2221.08   3
 -17   3  -4 13998.6 1694.43   3
 -17  -3  -4 12529.4 1618.66   3
 -18   3  -4 4500.21 1031.33   3
  20   4  -4 763.098 604.823   1
 -19   4   4 979.887 638.934   2
  19   4  -4 1698.09 855.331   1
 -18   4   4 324.836 681.151   2
  18   4  -4 646.224 477.658   1
  17   4  -4 417.620 423.116   1
 -17   4   4 1206.28 660.328   2
 -16   4   4 391.846 511.206   2
  16   4  -4 1674.46 664.677   1
 -15   4   4 1931.45 744.127   2
 -14   4   4 2138.36 775.220   2
 -13   4   4 307.764 417.637   2
 -13   4   4 419.959 347.630   3
 -12   4   4 324.019 437.729   2
 -12   4   4 288.618 318.414   3
 -11   4   4 3031.44 666.880   2
 -11   4   4 3612.71 652.212   3
 -10   4   4 8039.39 988.481   2
 -10   4   4 7793.20 866.240   3
 -10  -4   4 6548.86 585.725   2
  -9  -4   4 11167.4 698.038   2
  -9   4   4 13861.7 1231.95   2
  -9   4   4 11257.4 989.142   3
  -8   4   4 14308.9 1165.98   2
  -8   4   4 15698.4 1091.34   3
  -8  -4   4 16043.9 723.049   2
   7  -4  -4 7219.96 749.060   3
  -7   4   4 7070.13 807.212   2
  -7   4   4 6178.55 642.472   3
  -7  -4   4 6159.54 394.489   2
   6  -4  -4 55.1455 209.811   3
  -6   4   4 290.976 239.174   3
  -6   4   4 261.541 306.369   2
  -6  -4   4 243.276 98.8972   2
  -5  -4   4 275.481 81.0605   2
   5  -4  -4 421.819 168.215   3
  -5   4   4 481.207 335.102   2
   4  -4  -4 10684.8 493.933   3
  -4   4   4 10971.3 881.001   2
   3  -4  -4 6425.48 251.755   3
  -3   4   4 6786.16 659.430   2
   3   4  -4 7125.73 328.703   2
  -2   4   4 11673.6 872.252   2
   2   4  -4 12357.8 504.187   2
  -1   4   4 8682.11 728.353   2
   1   4  -4 8189.12 459.634   2
   0   4   4 6130.00 635.384   2
   1   4   4 24265.9 630.576   3
  -1   4  -4 26083.0 1114.23   3
   1   4   4 24114.8 1186.46   2
   2   4   4 25345.4 890.919   3
   2   4   4 25622.7 1230.66   2
  -2   4  -4 26574.1 1172.40   3
  -3   4  -4 21389.8 1068.03   3
   3   4   4 20901.1 1126.00   2
   3   4   4 19346.8 972.062   3
  -4   4  -4 26337.8 1248.21   3
   4   4   4 26688.5 1322.60   3
  -5  -4  -4 28281.5 1409.79   3
  -5   4  -4 27927.3 1335.06   3
   5   4   4 30303.9 1603.28   3
  -6   4  -4 30516.3 1499.05   3
  -6  -4  -4 34178.3 1686.98   3
  -7   4  -4 29569.4 1540.99   3
  -7  -4  -4 29587.5 1691.84   3
  -8  -4  -4 17602.6 1398.73   3
  -8   4  -4 16412.5 1214.42   3
  -9   4  -4 16513.2 1284.89   3
  -9  -4  -4 18322.1 1495.99   3
 -10   4  -4 9378.76 1089.79   3
 -10  -4  -4 9060.87 1082.50   3
 -11   4  -4 3722.77 792.098   3
 -11  -4  -4 3066.00 714.054   3
 -12  -4  -4 264.813 489.056   3
 -12   4  -4 409.643 422.691   3
 -13   4  -4 1034.54 529.841   3
 -13  -4  -4 508.237 454.938   3
 -14   4  -4 1228.38 549.962   3
 -15   4  -4 200.014 556.413   3
 -16   4  -4 1488.56 674.103   3
 -17   4  -4 495.787 498.599   3
 -18   4  -4 1.06842 729.825   3
  19   5  -4 7982.56 1299.53   1
 -18   5   4 7932.99 1398.97   2
  18   5  -4 6461.07 1170.35   1
 -17   5   4 6978.67 1319.90   2
  17   5  -4 6688.18 1170.80   1
 -16   5   4 4549.84 1002.65   2
 -15   5   4 4194.69 995.125   2
 -14   5   4 5873.51 1097.99   2
 -14   5   4 6260.81 942.799   3
 -13   5   4 229.005 545.942   2
 -13   5   4 68.0934 330.763   3
 -12   5   4 1362.16 653.247   2
 -12   5   4 2224.95 552.840   3
 -11   5   4 7119.10 1106.46   2
 -11   5   4 5355.00 754.699   3
 -10   5   4 862.233 490.498   2
 -10   5   4 253.290 343.194   3
  -9   5   4 3437.64 708.437   2
  -9   5   4 4337.31 642.278   3
  -8   5   4 19686.4 1469.04   2
  -8   5   4 18765.8 1181.90   3
  -8  -5   4 18414.6 822.536   2
   7  -5  -4 24694.0 1179.75   3
  -7   5   4 24274.9 1255.13   3
  -7   5   4 25976.1 1612.13   2
  -7  -5   4 24227.9 903.380   2
   6  -5  -4 45531.1 1431.28   3
  -6  -5   4 43226.4 1213.06   2
  -6   5   4 48676.4 2118.45   2
  -6   5   4 48343.5 1606.52   3
   5  -5  -4 92870.5 1911.07   3
  -5  -5   4 91339.0 1966.62   2
  -5   5   4 95932.8 2144.97   3
  -5   5   4 91274.8 2930.81   2
  -4   5   4 58802.6 2228.62   2
   4   5  -4 59503.8 1308.08   2
   3   5  -4 50370.9 1238.21   2
  -3   5   4 47429.3 1937.86   2
  -2   5   4 80293.2 2531.89   2
   2   5  -4 82008.0 1775.27   2
  -1   5   4 77612.9 2443.33   2
   1   5  -4 81632.2 1867.81   2
   0   5  -4 68816.0 1788.35   2
   0   5   4 69526.4 2262.39   2
   1   5   4 118632. 1998.85   3
  -1   5  -4 124672. 2904.15   3
  -1   5  -4 129940. 2786.85   2
   1   5   4 128790. 3191.07   2
   2   5   4 110065. 2929.69   2
  -2   5  -4 109438. 2737.51   3
   2   5   4 108217. 2284.47   3
  -3   5  -4 49830.9 1750.11   3
   3   5   4 49693.9 1720.05   3
   3   5   4 51170.4 1918.03   2
   4   5   4 58903.0 2083.97   2
  -4   5  -4 56124.9 1954.37   3
   4   5   4 56060.3 2117.21   3
  -5   5  -4 39232.2 1665.11   3
  -6   5  -4 34035.4 1584.00   3
  -7   5  -4 33522.2 1658.54   3
  -8   5  -4 12872.5 1107.35   3
  -9   5  -4 7429.83 885.380   3
 -10   5  -4 5778.62 898.401   3
 -11   5  -4 2838.93 751.453   3
 -12   5  -4 6862.08 1073.78   3
 -13   5  -4 3209.96 871.957   3
 -14   5  -4 2327.67 784.410   3
 -15   5  -4 889.389 557.153   3
 -16   5  -4 671.843 514.786   3
 -17   5  -4-28.7845 594.133   3
  18   6  -4 2461.32 836.932   1
 -17   6   4 3360.11 943.822   2
 -16   6   4 5695.00 1257.40   2
 -15   6   4 5498.96 1112.09   2
 -14   6   4 16746.8 1499.79   3
 -14   6   4 18290.4 1897.60   2
 -13   6   4 18770.4 1898.44   2
 -13   6   4 19613.1 1529.25   3
 -12   6   4 20724.2 1883.98   2
 -12   6   4 21609.1 1535.43   3
 -11   6   4 31777.9 1789.00   3
 -11   6   4 29798.2 2137.78   2
 -10   6   4 21736.1 1749.79   2
 -10   6   4 22064.7 1426.64   3
  -9   6   4 19265.3 1258.40   3
  -9   6   4 20032.1 1606.99   2
  -8   6   4 18685.7 1177.62   3
  -8   6   4 21027.8 1572.00   2
  -7   6   4 36592.4 2023.93   2
  -7   6   4 36135.5 1525.41   3
   7  -6  -4 35125.8 1317.33   3
   6  -6  -4 50511.8 1429.85   3
  -6  -6   4 50600.2 1567.86   2
  -6   6   4 49161.8 1628.60   3
  -6   6   4 55157.1 2376.48   2
  -5   6   4 25685.5 987.952   3
  -5   6   4 25231.0 1573.68   2
   4   6  -4 34035.8 1094.74   2
  -4   6   4 33303.3 1749.26   2
  -4   6   4 31848.4 892.815   3
  -3   6   4 22827.4 1398.49   2
   3   6  -4 20363.8 881.141   2
   2   6  -4 1905.71 294.622   2
  -2   6   4 1960.41 451.717   2
   1   6  -4 427.679 185.681   2
  -1   6   4 257.503 291.552   2
   0   6  -4 2416.44 361.455   2
   0   6   4 2519.33 517.306   2
   1   6   4 285.488 114.829   3
  -1   6  -4 142.456 202.747   2
  -1   6  -4 245.565 253.656   3
   1   6   4-33.6181 279.608   2
   2   6   4 666.438 317.269   2
  -2   6  -4-3.27191 208.245   2
   2   6   4 377.029 188.158   3
  -2   6  -4 267.861 295.661   3
   3   6   4 518.580 244.872   3
  -3   6  -4 646.229 305.812   2
  -3   6  -4 437.576 240.545   3
   3   6   4 1053.09 371.682   2
   4   6   4 418.861 226.916   3
   4   6   4 589.772 352.978   2
  -4   6  -4 926.209 356.030   3
   5   6   4 7495.67 813.013   2
  -5   6  -4 9549.77 863.643   3
  -6   6  -4 5053.91 692.534   3
  -7   6  -4 7828.27 852.058   3
  -8   6  -4 17699.7 1334.24   3
  -9   6  -4 14727.3 1286.35   3
 -10   6  -4 15766.6 1411.57   3
 -11   6  -4 12313.1 1322.49   3
 -12   6  -4 16648.3 1602.39   3
 -13   6  -4 11944.1 1408.50   3
 -14   6  -4 15247.9 1662.70   3
 -15   6  -4 7567.97 1240.26   3
 -16   6  -4 4967.76 1047.37   3
 -17   6  -4 5445.17 1107.40   3
 -16   7   4 673.098 778.515   2
 -15   7   4 946.630 645.963   2
 -14   7   4 1161.55 826.779   2
 -13   7   4 33.6278 544.188   2
 -12   7   4-139.213 499.844   2
 -11   7   4 1655.39 717.525   2
 -10   7   4 863.872 499.833   2
  -9   7   4 792.017 507.655   2
  -8   7   4 1056.96 546.867   2
  -7   7   4 2172.43 634.573   2
  -6   7   4 4950.73 832.874   2
  -5   7   4 1397.56 558.006   2
  -5   7   4 787.273 194.414   3
   5   7  -4 1725.45 305.787   2
  -4   7   4 1171.69 504.876   2
   4   7  -4 1899.64 340.458   2
  -3   7   4 3635.68 684.524   2
   3   7  -4 5773.20 540.969   2
  -2   7   4 1204.14 442.951   2
   2   7  -4 1422.74 309.722   2
   1   7  -4 1734.82 382.038   2
  -1   7   4 870.393 425.505   2
   0   7  -4 4053.38 517.730   2
   0   7   4 2675.90 559.830   2
   1   7   4 6691.64 823.921   2
   1   7   4 7070.69 324.172   3
  -1   7  -4 8884.89 807.913   3
  -1   7  -4 8305.39 733.573   2
  -2   7  -4 1505.15 404.454   2
  -2   7  -4 1792.46 509.041   3
   2   7   4 859.800 401.216   2
   3   7   4 3578.36 652.385   2
  -3   7  -4 4053.00 601.518   2
  -3   7  -4 4476.58 672.260   3
   4   7   4 4140.18 677.812   2
  -4   7  -4 3801.81 636.936   2
  -4   7  -4 4058.79 617.898   3
   5   7   4 8998.70 925.446   2
  -5   7  -4 10618.5 963.309   3
  -5   7  -4 9308.60 983.975   2
  -6   7  -4 6103.75 794.354   3
  -6   7  -4 7083.61 890.927   2
  -7   7  -4 2778.48 598.552   3
  -8   7  -4 5122.56 767.408   3
  -9   7  -4 697.084 384.541   3
 -10   7  -4 3046.45 699.068   3
 -11   7  -4 8880.68 1170.67   3
 -12   7  -4 9878.98 1266.44   3
 -13   7  -4 13101.0 1526.74   3
 -14   7  -4 7330.55 1219.15   3
 -15   7  -4 4238.61 1039.60   3
 -16   7  -4 3284.24 944.032   3
 -14   8   4 18586.3 2063.13   2
 -13   8   4 18767.8 1992.81   2
 -12   8   4 12883.3 1599.21   2
 -11   8   4 17560.1 1782.43   2
 -10   8   4 19201.5 1795.37   2
  -9   8   4 16243.2 1616.01   2
  -8   8   4 15797.8 1506.20   2
  -7   8   4 12121.1 1299.18   2
  -6   8   4 22818.3 1679.61   2
  -5   8   4 7364.43 968.923   2
  -4   8   4-423.819 498.719   2
   4   8  -4 535.626 223.640   2
  -3   8   4 1075.11 443.004   2
   3   8  -4 1196.10 274.728   2
  -2   8   4-487.312 428.837   2
   2   8  -4-155.644 212.288   2
   1   8  -4 2481.26 415.526   2
  -1   8   4 2492.60 575.152   2
   0   8   4 6246.55 823.391   2
   0   8  -4 4876.96 594.086   2
   0   8  -4 4875.55 631.174   3
  -1   8  -4 4098.95 551.960   2
  -1   8  -4 3565.03 546.414   3
   1   8   4 4288.31 657.997   2
  -2   8  -4 11341.5 960.368   3
   2   8   4 9483.33 1000.26   2
  -2   8  -4 10199.8 897.238   2
  -3   8  -4 8642.26 850.233   3
  -3   8  -4 8413.23 852.718   2
   3   8   4 8988.75 974.609   2
  -4   8  -4 13067.5 1061.96   3
   4   8   4 12821.6 1147.12   2
  -4   8  -4 11705.2 1051.78   2
  -5   8  -4 24192.9 1490.77   3
   5   8   4 21493.8 1525.14   2
  -5   8  -4 22856.9 1517.30   2
  -6   8  -4 28407.1 1775.53   2
  -6   8  -4 27708.4 1666.64   3
  -7   8  -4 25529.2 1634.17   3
  -7   8  -4 30036.4 1906.46   2
  -8   8  -4 28883.6 1803.12   3
  -8   8  -4 31057.5 2061.52   2
  -9   8  -4 25231.5 1913.21   2
  -9   8  -4 24045.2 1736.10   3
 -10   8  -4 15664.0 1480.03   3
 -10   8  -4 15881.8 1587.46   2
 -11   8  -4 17980.2 1670.27   3
 -12   8  -4 9256.22 1289.96   3
 -13   8  -4 9918.59 1370.69   3
 -14   8  -4 13322.9 1658.02   3
 -15   8  -4 2973.13 926.715   3
 -12   9   4 4140.20 1021.79   2
 -11   9   4 10532.0 1486.54   2
 -10   9   4 15912.7 1700.29   2
  -9   9   4 13985.1 1528.89   2
  -8   9   4 16359.6 1583.20   2
  -7   9   4 13738.4 1423.37   2
  -6   9   4 33147.6 2123.22   2
  -5   9   4 45267.8 2437.81   2
  -4   9   4 43205.8 2367.15   2
  -3   9   4 62773.1 2836.20   2
  -2   9   4 47198.5 2398.55   2
   2   9  -4 51298.0 1942.70   2
  -1   9   4 35074.7 2022.66   2
   1   9  -4 33315.6 1683.46   3
   1   9  -4 32751.5 1571.51   2
   0   9   4 29194.7 1848.27   2
   0   9  -4 28050.5 1550.17   3
   0   9  -4 28821.9 1503.75   2
   1   9   4 18461.3 1432.74   2
  -1   9  -4 18322.4 1246.45   2
  -1   9  -4 18265.0 1257.61   3
   2   9   4 18036.5 1426.18   2
  -2   9  -4 17454.6 1231.42   3
  -2   9  -4 16682.5 1222.08   2
   3   9   4 18062.4 1452.90   2
  -3   9  -4 17893.4 1268.23   3
  -3   9  -4 17471.2 1300.26   2
  -4   9  -4 16298.6 1268.36   3
  -4   9  -4 16890.5 1321.67   2
   4   9   4 18672.6 1462.24   2
   5   9   4 15622.6 1347.33   2
  -5   9  -4 16635.3 1277.17   3
  -5   9  -4 15087.2 1312.03   2
  -6   9  -4 6207.33 854.676   3
  -6   9  -4 6490.38 936.683   2
  -7   9  -4 6669.88 982.461   2
  -7   9  -4 5941.76 855.669   3
  -8   9  -4 270.940 363.031   3
  -8   9  -4-508.889 502.747   2
  -9   9  -4-2.61413 401.195   3
  -9   9  -4 107.245 418.774   2
 -10   9  -4 523.278 520.762   3
 -10   9  -4-306.932 480.230   2
 -11   9  -4-652.122 558.826   2
 -11   9  -4 1289.78 662.500   3
 -12   9  -4 994.959 638.142   3
 -12   9  -4-716.423 718.949   2
 -13   9  -4 57.4361 519.781   3
 -14   9  -4 1030.07 549.859   3
 -10  10   4 2335.11 789.263   2
  -9  10   4 1460.43 619.243   2
  -8  10   4 2862.31 811.129   2
  -7  10   4 1290.60 670.274   2
  -6  10   4 332.793 529.357   2
  -5  10   4 640.671 512.766   2
  -4  10   4 263.915 460.751   2
  -3  10   4 4377.06 870.363   2
  -2  10   4 4506.99 847.556   2
   1  10  -4 2474.02 513.547   3
  -1  10   4 3174.31 729.101   2
   0  10  -4 8185.33 917.658   3
   0  10  -4 7366.96 821.231   2
   0  10   4 7726.85 1029.14   2
   1  10   4 8360.58 1081.73   2
  -1  10  -4 7541.03 865.174   2
  -1  10  -4 6403.00 796.015   3
  -2  10  -4 14895.5 1210.39   3
  -2  10  -4 13857.4 1164.99   2
   2  10   4 15507.2 1398.81   2
  -3  10  -4 12425.8 1107.41   3
  -3  10  -4 15081.5 1249.28   2
   3  10   4 12343.6 1273.58   2
   4  10   4 9392.37 1142.55   2
  -4  10  -4 10449.3 1049.07   3
  -4  10  -4 9699.11 1076.21   2
   5  10   4 4737.57 770.929   2
  -5  10  -4 5650.69 867.480   2
  -5  10  -4 5540.52 793.365   3
  -6  10  -4 4618.92 828.233   2
  -6  10  -4 5764.89 838.598   3
  -7  10  -4 4289.25 752.135   3
  -7  10  -4 5672.45 910.364   2
  -8  10  -4 3029.43 695.453   3
  -8  10  -4 2698.20 713.026   2
  -9  10  -4 6639.32 1093.13   2
 -10  10  -4 1286.70 632.069   2
 -11  10  -4 891.364 565.558   2
  -7  11   4 9531.75 1314.22   2
  -6  11   4 5438.46 1026.85   2
  -5  11   4 4188.88 864.954   2
  -4  11   4 5433.52 984.575   2
  -3  11   4 464.870 450.972   2
  -2  11   4 988.985 559.651   2
  -1  11   4 2678.59 685.982   2
   0  11   4 1729.19 574.964   2
   1  11   4 732.123 466.851   2
   2  11   4-126.414 420.347   2
  -3  11  -4-107.799 321.915   2
   3  11   4 886.012 588.197   2
   4  11   4 1685.80 541.686   2
  -4  11  -4 1939.07 576.094   2
   5  11   4 2962.40 723.942   2
  -5  11  -4 2706.24 639.208   2
  -6  11  -4 2778.75 754.252   2
  -7  11  -4 3941.57 846.927   2
  -8  11  -4 4647.16 941.604   2
  -9  11  -4 2759.09 846.430   2
  -3  12   4 786.259 560.180   2
  -2  12   4 979.643 562.038   2
  -1  12   4 2309.31 676.140   2
   0  12   4 4296.57 888.128   2
   1  12   4 5880.98 1025.81   2
   2  12   4 5460.94 999.108   2
   3  12   4 4922.10 918.395   2
   4  12   4 5117.78 956.162   2
   5  12   4 8501.52 1175.40   2
  -7  12  -4 5853.90 1018.35   2
  20   0  -5-213.709 541.247   1
  19   0  -5-156.515 604.992   1
  18   0  -5 9.05427 512.313   1
  17   0  -5 531.797 639.368   1
  16   0  -5-148.661 577.561   1
  15   0  -5-453.930 591.290   1
  14   0  -5 37.1847 523.384   1
  13   0  -5 727.172 573.792   1
  12   0  -5-169.658 553.492   1
  11   0  -5-107.761 437.271   1
  10   0  -5 158.830 518.234   1
   9   0  -5 30.8408 384.860   1
  -8   0   5-25.0067 158.125   2
   8   0  -5 688.684 379.889   1
  -7   0   5-123.187 204.539   2
   7   0  -5-10.9333 347.518   1
   6   0  -5-207.511 308.971   1
  -6   0   5 48.6886 135.423   2
   5   0  -5-23.4825 212.586   1
  -5   0   5 8.31281 101.985   2
   4   0  -5 196.833 243.617   1
   4   0  -5 403.220 137.413   2
  -4   0   5 200.412 111.796   2
   3   0  -5 231.323 251.281   1
   3   0  -5 34.7898 91.8605   2
  -3   0   5 74.8541 105.462   2
   2   0  -5 172.044 94.4579   2
  -2   0   5-80.4873 89.6715   2
  -1   0   5 53.4473 108.651   2
   1   0  -5 117.660 109.547   2
   0   0  -5 181.310 110.279   2
  -1   0  -5 81.8602 84.5723   2
  -1   0  -5 124.199 124.120   3
   2   0   5 589.895 158.259   3
  -2   0  -5 46.5594 124.239   3
  -3   0  -5 315.983 203.730   3
   3   0   5 236.735 141.530   3
  -4   0  -5 0.97999 175.454   3
  -5   0  -5 576.723 197.400   3
  -6   0  -5-348.385 258.374   3
  -7   0  -5 230.562 272.041   3
  -8   0  -5 414.782 378.294   3
  -9   0  -5 145.851 293.455   3
 -10   0  -5 178.337 352.111   3
 -11   0  -5-393.888 481.469   3
 -12   0  -5-737.193 625.124   3
 -13   0  -5-542.754 697.877   3
 -14   0  -5-591.519 653.789   3
 -15   0  -5-191.586 469.844   3
 -16   0  -5-331.951 680.397   3
 -17   0  -5-511.178 648.185   3
 -18   0  -5-863.410 728.622   3
  20   1  -5 4744.81 1153.99   1
  20  -1  -5 4465.27 1107.90   1
  19  -1  -5 3151.58 934.810   1
  19   1  -5 2491.04 797.022   1
  18   1  -5 1913.55 756.497   1
  18  -1  -5 2864.84 956.958   1
  17  -1  -5 2262.24 822.940   1
  17   1  -5 2148.93 692.140   1
  16  -1  -5 2863.88 862.793   1
  16   1  -5 447.356 435.605   1
  15   1  -5 311.853 504.918   1
  15  -1  -5 1036.86 637.271   1
  14   1  -5 428.384 520.190   1
  14  -1  -5 1079.77 612.917   1
  13   1  -5 11434.4 1364.99   1
  13  -1  -5 13600.6 1533.26   1
  12  -1  -5 755.297 559.740   1
  12   1  -5 74.3341 470.721   1
  11   1  -5 165.501 391.416   1
  11  -1  -5 744.980 509.263   1
  10   1  -5 2668.18 647.679   1
 -10   1   5 1596.26 428.625   2
  10  -1  -5 2650.17 740.167   1
   9   1  -5 14390.7 1362.40   1
   9  -1  -5 13860.0 1439.44   1
  -9   1   5 14451.4 1085.13   2
  -8   1   5 4314.06 569.514   2
   8  -1  -5 6019.15 891.529   1
   7  -1  -5 43111.0 2319.31   1
  -7  -1   5 41051.7 1374.99   2
  -7   1   5 41203.2 1630.38   2
   6  -1  -5 39559.4 2147.58   1
  -6  -1   5 40357.3 1215.43   2
  -6   1   5 41538.4 1554.11   2
  -5   1   5 5088.90 516.059   2
   5  -1  -5 5905.92 799.384   1
  -5  -1   5 5391.03 385.047   2
  -4   1   5 53068.0 1646.55   2
   4  -1  -5 55702.7 2252.00   1
   4  -1  -5 58348.8 1614.82   2
  -4  -1   5 57376.0 1236.61   2
  -3  -1   5 28414.8 770.559   2
  -3   1   5 28072.1 1080.28   2
   3  -1  -5 27916.2 1440.19   1
   3   1  -5 26830.3 733.742   2
   3  -1  -5 29655.9 1074.70   2
  -2   1   5 45278.5 1903.17   1
   2  -1  -5 43689.5 1703.38   1
  -2   1   5 43546.5 1343.65   2
   2  -1  -5 40701.1 1283.75   2
   2   1  -5 45269.9 1004.18   2
  -1   1   5 128046. 2596.94   2
   1   1  -5 129114. 2209.61   2
   1  -1  -5 130146. 2584.63   2
   1  -1  -5 130229. 2869.96   1
   0   1   5 70774.8 1796.68   2
   0  -1  -5 70609.4 1483.83   3
   0  -1  -5 67956.2 1654.64   1
   0  -1  -5 68415.2 1751.99   2
  -1  -1  -5 84073.6 2046.87   2
  -1   1  -5 83627.0 1954.22   3
  -1  -1  -5 83285.6 1772.47   3
  -2  -1  -5 89057.7 1996.38   3
  -2   1  -5 87362.7 2072.52   3
   2   1   5 88155.2 1954.07   3
  -2  -1  -5 90924.7 2257.72   2
  -3   1  -5 83432.2 2097.25   3
  -3  -1  -5 84582.5 2117.21   3
   3   1   5 84159.4 2067.89   3
  -4  -1  -5 101171. 2519.48   3
  -4   1  -5 96219.3 2422.97   3
   4   1   5 95463.8 2437.28   3
  -5   1  -5 70756.2 2160.22   3
  -5  -1  -5 72677.9 2280.03   3
  -6   1  -5 101484. 2831.03   3
  -6  -1  -5 101437. 2966.06   3
  -6   1  -5 96056.5 2031.40   1
  -7   1  -5 66656.0 2392.40   3
  -7   1  -5 68603.6 1852.60   1
  -7  -1  -5 67903.5 2561.93   3
  -8   1  -5 20768.6 1037.91   1
  -8  -1  -5 19014.7 1442.62   3
  -8   1  -5 20528.5 1376.21   3
  -9   1  -5 17649.3 1056.52   1
  -9   1  -5 19713.0 1444.03   3
  -9  -1  -5 17244.2 1457.17   3
 -10  -1  -5 17149.3 1518.09   3
 -10   1  -5 22834.1 1660.12   3
 -11  -1  -5 16490.8 1532.93   3
 -11   1  -5 16385.1 1527.02   3
 -12   1  -5 20355.1 1797.90   3
 -12  -1  -5 26518.2 1981.98   3
 -13  -1  -5 21932.4 1861.63   3
 -13   1  -5 21122.5 1874.15   3
 -14   1  -5 14674.3 1604.71   3
 -14  -1  -5 17337.5 1710.29   3
 -15   1  -5 7601.09 1263.57   3
 -15  -1  -5 7397.03 1188.55   3
 -16  -1  -5 1740.95 776.919   3
 -16   1  -5 847.355 549.105   3
 -17  -1  -5 2659.71 847.926   3
 -17   1  -5 2013.63 874.054   3
 -18  -1  -5-258.141 645.379   3
 -18   1  -5 354.213 584.452   3
 -21   2   5 5020.46 1206.99   2
 -20   2   5 6231.56 1285.75   2
  20   2  -5 8159.39 1334.23   1
  19   2  -5 11072.3 1587.43   1
 -19   2   5 9839.76 1504.72   2
  18  -2  -5 8519.39 1444.99   1
 -18   2   5 8081.11 1350.60   2
  18   2  -5 9034.84 1379.92   1
 -17   2   5 15628.5 1732.17   2
  17   2  -5 13705.7 1668.37   1
  17  -2  -5 14365.0 1783.57   1
  16   2  -5 11871.2 1516.39   1
 -16   2   5 11564.4 1456.31   2
  16  -2  -5 13242.4 1690.40   1
  15   2  -5 29342.5 2303.55   1
 -15   2   5 25248.9 2033.74   2
  15  -2  -5 29919.7 2440.35   1
  14   2  -5 30574.5 2300.15   1
  14  -2  -5 36865.6 2638.56   1
 -14   2   5 33498.9 2248.19   2
  13   2  -5 41897.2 2598.61   1
 -13   2   5 44035.0 2463.58   2
  13  -2  -5 48545.5 2979.03   1
  12   2  -5 20950.8 1776.83   1
 -12   2   5 21104.8 1640.47   2
  12  -2  -5 21555.9 2002.43   1
  11  -2  -5 27457.8 2122.18   1
 -11   2   5 25331.6 1693.90   2
 -10   2   5 12110.2 1115.13   2
  10  -2  -5 12924.8 1450.02   1
   9  -2  -5 10318.7 1239.75   1
  -9   2   5 8807.79 905.857   2
  -8   2   5 7892.90 794.822   2
   8  -2  -5 8944.69 1112.57   1
  -7  -2   5 26967.0 949.404   2
  -7   2   5 24291.8 1317.18   2
   7  -2  -5 26891.3 1775.55   1
  -6  -2   5 14070.1 532.200   2
  -6   2   5 14600.3 996.859   2
   6  -2  -5 12539.6 916.567   3
   6  -2  -5 12344.4 1231.40   1
   5  -2  -5 22833.6 1472.46   1
   5  -2  -5 20963.6 969.583   3
  -5   2   5 21299.2 1136.78   2
   4  -2  -5 14612.4 699.094   3
  -4   2   5 15977.3 922.041   2
   4  -2  -5 16480.6 1133.89   1
  -3   2   5 22612.5 1382.66   1
  -3   2   5 21323.7 1043.72   2
   3  -2  -5 25445.3 1288.29   1
   2   2  -5 204.988 56.8804   2
  -2   2   5-97.8714 149.013   2
   2  -2  -5 207.616 156.101   2
  -2   2   5 17.8917 139.700   1
   1  -2  -5 3078.03 217.175   3
   1  -2  -5 3025.71 363.273   2
  -1   2   5 3065.74 384.464   2
  -1   2   5 3321.37 455.281   1
   0   2   5 2431.54 346.784   1
   0   2   5 2498.04 383.254   2
   0  -2  -5 2813.31 237.012   3
  -1   2  -5 44738.8 1427.60   3
   1   2   5 45420.2 1078.70   3
  -1  -2  -5 45440.8 1181.46   3
   1   2   5 44881.5 1510.11   2
   1   2   5 44105.3 1359.65   1
  -2  -2  -5 1571.53 232.150   3
   2   2   5 1562.67 217.986   3
  -2   2  -5 2290.78 365.923   3
   2   2   5 1831.35 332.682   2
   2   2   5 1534.68 219.227   1
   3   2   5 1716.85 275.789   3
  -3  -2  -5 2494.02 380.330   3
  -3   2  -5 2220.98 381.359   3
  -4  -2  -5 2867.40 467.457   3
   4   2   5 3202.48 434.372   3
  -5  -2  -5 3721.93 551.980   3
  -5   2  -5 3869.58 519.627   3
  -6  -2  -5-29.6344 275.240   3
  -6   2  -5 157.982 288.302   3
   7   2   5 2080.96 289.285   1
  -7  -2  -5 938.496 381.112   3
  -7   2  -5 2260.39 331.802   1
  -7   2  -5 1543.84 411.956   3
  -8   2  -5 2296.64 362.516   1
  -8   2  -5 1447.71 379.193   3
   8   2   5 2631.84 344.473   1
  -8  -2  -5 1410.75 423.837   3
  -9  -2  -5-180.634 491.516   3
   9   2   5 197.783 227.754   1
 -10   2  -5 257.972 387.462   3
  10   2   5 590.572 260.063   1
 -10  -2  -5 210.952 374.764   3
 -11   2  -5 4045.87 786.021   3
  11   2   5 4520.49 589.801   1
 -11  -2  -5 4744.17 892.083   3
  12   2   5 834.736 329.313   1
 -12   2  -5 648.897 501.280   3
 -12  -2  -5 28.5952 421.789   3
 -13   2  -5-379.863 543.111   3
 -13  -2  -5 411.445 478.047   3
 -14   2  -5-421.052 639.583   3
 -14  -2  -5 110.987 495.108   3
 -15  -2  -5 213.101 469.678   3
 -15   2  -5-443.774 558.098   3
 -16   2  -5 137.459 594.152   3
 -16  -2  -5 46.4526 521.443   3
 -17  -2  -5 1.92080 565.324   3
 -17   2  -5 221.498 562.057   3
 -18  -2  -5 329.810 542.122   3
 -18   2  -5 113.033 572.677   3
 -20   3   5 3627.03 1072.55   2
  20   3  -5 2162.32 858.138   1
 -19   3   5 4465.69 1195.04   2
  19   3  -5 3941.26 967.514   1
  18   3  -5 8829.34 1444.65   1
 -18   3   5 7846.37 1375.38   2
  17   3  -5 6186.48 1112.64   1
 -17   3   5 7279.61 1236.28   2
  16   3  -5 12305.7 1563.20   1
 -16   3   5 14927.6 1652.02   2
  15   3  -5 19194.3 1840.29   1
 -15   3   5 19751.4 1849.79   2
  14   3  -5 38169.8 2511.85   1
 -14   3   5 39323.4 2534.06   2
 -13   3   5 43056.3 2554.16   2
 -12   3   5 61648.4 2926.22   2
 -11   3   5 40702.8 2254.06   2
 -10   3   5 15729.1 1308.69   2
  -9   3   5 19678.1 1375.64   2
  -8   3   5 27711.4 1554.67   2
  -7  -3   5 22642.3 643.983   2
  -7   3   5 22953.5 1371.34   2
  -6   3   5 28598.7 1474.26   2
   6  -3  -5 30439.8 1611.86   3
   5  -3  -5 21397.4 1174.27   3
  -5   3   5 25061.9 1302.84   2
  -4   3   5 4563.99 567.437   2
   4  -3  -5 3531.21 421.508   3
   3  -3  -5 537.600 139.453   3
  -3   3   5 1036.48 350.530   2
   2  -3  -5 14551.1 464.617   3
  -2   3   5 14360.0 906.517   2
  -1   3   5 9053.12 714.492   2
  -1   3   5 8035.09 678.177   1
   0  -3  -5 34541.8 887.277   3
   0   3   5 36656.6 1424.15   2
   1   3   5 74903.8 2158.25   2
   1   3   5 76948.1 1425.15   3
  -1   3  -5 73200.0 2015.37   3
  -1  -3  -5 76279.5 1799.84   3
   2   3   5 52178.0 1766.08   2
  -2   3  -5 52339.8 1681.66   3
   2   3   5 51807.0 1299.65   3
  -2  -3  -5 53205.6 1717.62   3
   3   3   5 82336.2 1971.86   3
  -3  -3  -5 77885.5 2402.55   3
  -3   3  -5 82389.1 2232.35   3
   4   3   5 80054.1 2181.39   3
  -4   3  -5 77166.2 2241.23   3
  -4  -3  -5 84359.4 2655.48   3
  -5   3  -5 83242.0 2415.11   3
  -5  -3  -5 84466.5 2828.65   3
  -6   3  -5 77255.9 2442.25   3
  -6  -3  -5 84580.1 2944.38   3
  -7   3  -5 70039.9 2434.61   3
  -7  -3  -5 75905.1 2910.81   3
  -8  -3  -5 38667.0 2144.73   3
  -8   3  -5 38823.3 1892.54   3
  -9  -3  -5 47150.4 2436.93   3
  -9   3  -5 39154.6 2021.44   3
 -10  -3  -5 30828.7 2032.31   3
  10   3   5 27719.1 1346.95   1
 -10   3  -5 27968.5 1781.98   3
 -11  -3  -5 18305.4 1600.50   3
  11   3   5 16770.1 1115.94   1
 -11   3  -5 19266.1 1574.73   3
 -12   3  -5 12512.9 1345.83   3
 -12  -3  -5 13146.1 1425.03   3
 -13  -3  -5 17968.6 1715.73   3
 -13   3  -5 14809.6 1565.18   3
 -14   3  -5 6277.09 1087.41   3
 -14  -3  -5 8497.83 1292.93   3
 -15   3  -5-305.776 625.702   3
 -15  -3  -5 1279.38 747.084   3
 -16  -3  -5 801.470 627.564   3
 -16   3  -5-214.539 698.093   3
 -17  -3  -5 2791.75 850.210   3
 -17   3  -5 2387.65 714.332   3
 -18  -3  -5 1773.66 811.438   3
 -18   3  -5 1926.97 760.514   3
  19   4  -5 570.442 518.436   1
 -19   4   5 500.795 632.576   2
 -18   4   5 1505.21 683.606   2
  18   4  -5 1938.09 764.925   1
  17   4  -5-502.829 646.313   1
 -17   4   5 1151.90 623.751   2
  16   4  -5 12.0405 455.948   1
 -16   4   5-517.307 671.717   2
 -15   4   5 1273.68 589.733   2
 -14   4   5 2883.33 769.516   2
 -13   4   5 34722.0 2345.17   2
 -12   4   5 56549.9 2891.41   2
 -11   4   5 52159.8 2622.81   2
 -10   4   5 77018.8 3094.28   2
  -9  -4   5 71250.1 1652.34   2
  -9   4   5 79639.4 2996.64   2
  -8  -4   5 104516. 1867.78   2
  -8   4   5 112958. 3471.36   2
  -7   4   5 164976. 4207.06   2
   7  -4  -5 154690. 3955.21   3
   6  -4  -5 213740. 4386.32   3
  -6   4   5 218351. 4862.10   2
   5  -4  -5 388123. 6050.05   3
  -5   4   5 376648. 6984.82   2
   4  -4  -5 374423. 5345.85   3
  -4   4   5 387612. 6891.07   2
  -3   4   5 314372. 5913.81   2
   2   4  -5 273393. 3865.61   2
  -2   4   5 269976. 5256.87   2
   1   4  -5 269722. 4069.85   2
  -1   4   5 264172. 5147.97   2
   0   4   5 176835. 3896.90   2
   1   4   5 166202. 3704.41   2
   1   4   5 163573. 2387.93   3
  -1   4  -5 171645. 3515.59   3
   2   4   5 133859. 3277.62   2
  -2   4  -5 135558. 3109.47   3
   2   4   5 137591. 2408.73   3
  -2  -4  -5 137362. 2561.39   3
   3   4   5 49067.1 1832.60   2
   3   4   5 47282.8 1419.23   3
  -3  -4  -5 49424.2 1568.85   3
  -3   4  -5 47819.7 1715.99   3
   4   4   5 30255.3 1289.43   3
  -4   4  -5 33499.9 1450.98   3
  -4  -4  -5 30416.3 1420.85   3
  -5  -4  -5 21733.8 1289.86   3
  -5   4  -5 22301.1 1249.21   3
  -6   4  -5 987.284 354.842   3
  -6  -4  -5 1291.17 368.296   3
  -7   4  -5 2612.65 524.132   3
  -7  -4  -5 3038.67 586.933   3
  -8   4  -5 13053.4 1096.32   3
  -8  -4  -5 15107.3 1304.20   3
  -9   4  -5 24648.8 1566.91   3
  -9  -4  -5 26199.6 1826.59   3
 -10   4  -5 26009.3 1726.03   3
 -10  -4  -5 27197.5 1889.24   3
 -11  -4  -5 69175.0 3175.23   3
 -11   4  -5 58714.2 2764.99   3
 -12  -4  -5 50250.5 2770.78   3
 -12   4  -5 43962.6 2517.88   3
 -13   4  -5 75158.4 3477.91   3
 -13  -4  -5 82052.9 3677.89   3
 -14   4  -5 74882.8 3663.48   3
 -14  -4  -5 81019.4 3743.63   3
 -15   4  -5 77988.8 3903.44   3
 -15  -4  -5 86364.9 4002.30   3
 -16   4  -5 65572.7 3661.28   3
 -17   4  -5 39725.0 2922.01   3
  19   5  -5 2237.64 853.055   1
  18   5  -5 11943.8 1575.73   1
 -18   5   5 11306.4 1639.50   2
  17   5  -5 10053.7 1473.29   1
 -17   5   5 12713.9 1707.33   2
 -16   5   5 14065.8 1747.99   2
 -15   5   5 24936.2 2203.14   2
 -14   5   5 16365.0 1743.50   2
 -13   5   5 26216.5 2143.04   2
 -12   5   5 28315.8 2120.96   2
 -11   5   5 33425.8 2179.79   2
 -10   5   5 37361.7 2214.56   2
  -9   5   5 28004.1 1832.83   2
  -8   5   5 26194.8 1685.15   2
   7  -5  -5 12010.1 822.606   3
  -7   5   5 12934.0 1177.62   2
   6  -5  -5 3203.80 367.218   3
  -6   5   5 2565.66 557.759   2
  -5   5   5 518.846 354.372   2
   5  -5  -5 716.894 134.979   3
  -4   5   5 8943.57 884.484   2
  -3   5   5 9513.87 883.660   2
   3   5  -5 9549.82 440.910   2
   2   5  -5 23594.0 800.876   2
  -2   5   5 21732.6 1305.61   2
  -1   5   5 31136.2 1536.27   2
   1   5  -5 31130.3 1033.36   2
   0   5  -5 71217.8 1818.45   2
   0   5   5 70405.3 2382.70   2
  -1   5  -5 134804. 3187.76   3
   1   5   5 138169. 3456.32   2
   2   5   5 207108. 4501.73   2
  -2   5  -5 202414. 4193.84   3
   2   5   5 202708. 3212.72   3
   3   5   5 185134. 3456.23   3
   3   5   5 197413. 4340.46   2
  -3   5  -5 190664. 4100.96   3
   4   5   5 178831. 4186.29   2
   4   5   5 177737. 3719.77   3
  -4   5  -5 181142. 4019.15   3
  -5   5  -5 143995. 3576.57   3
  -6   5  -5 146972. 3732.13   3
  -7   5  -5 194434. 4585.22   3
  -8   5  -5 138130. 3916.48   3
  -9   5  -5 116963. 3742.63   3
 -10   5  -5 105922. 3641.34   3
 -11   5  -5 61555.4 2860.64   3
 -12   5  -5 48141.1 2658.51   3
 -13   5  -5 28573.2 2119.85   3
 -14   5  -5 17840.4 1774.49   3
 -15   5  -5 11867.5 1546.89   3
 -16   5  -5 3886.96 999.987   3
 -17   5  -5 794.618 639.076   3
  18   6  -5 3977.78 1054.49   1
 -17   6   5 3282.27 943.178   2
 -16   6   5 2624.66 937.776   2
 -15   6   5 2530.34 774.790   2
 -14   6   5 2343.79 815.461   2
 -13   6   5 4897.65 987.555   2
 -12   6   5 4317.99 912.440   2
 -11   6   5-144.493 586.077   2
 -10   6   5-195.640 481.579   2
  -9   6   5 3887.24 771.554   2
  -8   6   5 5134.46 816.890   2
  -7   6   5 12224.9 1169.32   2
   6  -6  -5 30904.1 984.427   3
  -6   6   5 28366.8 1719.95   2
  -5   6   5 17170.6 1291.19   2
   4   6  -5 13959.2 604.350   2
  -4   6   5 13127.5 1146.31   2
  -3   6   5 27891.8 1613.19   2
   3   6  -5 30903.4 1005.62   2
   2   6  -5 36410.0 1189.48   2
  -2   6   5 37162.6 1824.66   2
   1   6  -5 67505.3 1786.34   2
  -1   6   5 60138.1 2349.89   2
   0   6  -5 46934.6 1550.64   2
   0   6   5 44752.3 1975.68   2
   1   6   5 28746.5 1559.47   2
  -1   6  -5 29291.1 1416.78   3
  -1   6  -5 30649.5 1306.10   2
   2   6   5 20721.0 1318.04   2
  -2   6  -5 24040.2 1309.22   3
   2   6   5 20614.0 705.753   3
  -2   6  -5 21938.2 1184.82   2
   3   6   5 12996.8 710.188   3
  -3   6  -5 15858.8 1083.62   3
   3   6   5 14690.4 1122.84   2
   4   6   5 8659.87 696.138   3
   4   6   5 9863.77 932.339   2
  -4   6  -5 9652.86 883.896   3
  -5   6  -5 10407.3 962.797   3
  -6   6  -5 6895.09 802.736   3
  -7   6  -5 11159.6 1034.06   3
  -8   6  -5 4249.82 729.314   3
  -9   6  -5 7749.80 946.111   3
 -10   6  -5 5813.88 859.953   3
 -11   6  -5 8925.57 1145.00   3
 -12   6  -5 5373.14 919.453   3
 -13   6  -5 4527.08 964.530   3
 -14   6  -5 4775.05 1042.92   3
 -15   6  -5 3725.11 974.651   3
 -16   6  -5 353.814 534.076   3
 -16   7   5-567.171 721.714   2
 -15   7   5-916.311 664.713   2
 -14   7   5 6009.60 1184.36   2
 -13   7   5 8055.53 1307.52   2
 -12   7   5 12722.9 1564.95   2
 -11   7   5 14325.6 1531.04   2
 -10   7   5 10533.5 1325.78   2
  -9   7   5 19655.7 1695.34   2
  -8   7   5 17793.7 1550.10   2
  -7   7   5 26373.4 1811.90   2
  -6   7   5 43690.0 2302.42   2
  -5   7   5 26409.9 1736.31   2
   4   7  -5 16217.5 774.157   2
  -4   7   5 17326.0 1364.52   2
  -3   7   5 8977.88 992.505   2
   3   7  -5 10171.6 659.974   2
   2   7  -5 3908.00 430.627   2
  -2   7   5 3924.72 696.656   2
   1   7  -5 9459.51 686.438   2
  -1   7   5 10560.1 1016.39   2
   0   7  -5 8622.53 802.870   3
   0   7  -5 8061.41 677.645   2
   0   7   5 8285.52 920.815   2
   1   7   5 2184.28 512.145   2
  -1   7  -5 2145.67 460.503   3
  -1   7  -5 1688.67 350.804   2
   2   7   5 1731.63 503.828   2
  -2   7  -5 2474.28 444.760   2
  -2   7  -5 2228.93 467.992   3
  -3   7  -5 149.805 267.374   2
  -3   7  -5-120.338 261.797   3
   3   7   5 95.0630 287.487   2
   4   7   5 534.200 364.649   2
  -4   7  -5 1042.84 386.645   2
  -4   7  -5 948.752 364.015   3
   5   7   5 2311.32 529.858   2
  -5   7  -5 2210.64 509.922   3
  -6   7  -5 3428.27 641.132   3
  -7   7  -5 1424.10 489.451   3
  -8   7  -5 1367.66 491.327   3
  -9   7  -5 1084.58 507.455   3
 -10   7  -5-764.119 552.735   3
 -11   7  -5 954.307 583.852   3
 -12   7  -5 1299.98 664.291   3
 -13   7  -5 868.436 645.431   3
 -14   7  -5 545.608 680.511   3
 -15   7  -5 218.977 561.125   3
 -14   8   5 13776.6 1796.01   2
 -13   8   5 8969.03 1393.69   2
 -12   8   5 4638.13 1086.47   2
 -11   8   5 2392.64 771.879   2
 -10   8   5 2010.74 729.853   2
  -9   8   5 1678.11 630.553   2
  -8   8   5-484.179 554.909   2
  -7   8   5-185.167 479.007   2
  -6   8   5 709.277 398.399   2
  -5   8   5 7587.69 1003.41   2
  -4   8   5 18762.8 1495.98   2
  -3   8   5 11825.0 1164.21   2
   3   8  -5 12054.4 782.796   2
   2   8  -5 7013.13 616.594   2
  -2   8   5 6735.61 880.102   2
   1   8  -5 3132.93 467.365   2
  -1   8   5 3490.42 654.534   2
   0   8  -5 7587.05 775.873   3
   0   8   5 7483.22 922.380   2
   0   8  -5 8216.23 746.544   2
   1   8   5 20113.5 1446.76   2
  -1   8  -5 18366.9 1143.43   2
  -1   8  -5 19965.6 1280.69   3
   2   8   5 8981.57 1014.99   2
  -2   8  -5 9378.32 892.381   3
  -2   8  -5 9049.61 843.848   2
   3   8   5 10673.4 1083.89   2
  -3   8  -5 11443.9 1016.30   3
  -3   8  -5 9733.17 924.071   2
   4   8   5 3823.30 689.250   2
  -4   8  -5 4087.93 635.357   3
  -4   8  -5 3770.92 636.878   2
   5   8   5 394.280 435.113   2
  -5   8  -5 612.064 366.207   2
  -5   8  -5 1208.52 519.209   3
  -6   8  -5 705.606 476.293   2
  -6   8  -5 1325.11 528.198   3
  -7   8  -5 6929.47 953.299   2
  -7   8  -5 9271.68 1056.08   3
  -8   8  -5 4758.16 758.026   3
  -8   8  -5 5657.76 961.642   2
  -9   8  -5 299.063 415.614   3
 -10   8  -5 1733.06 603.502   3
 -11   8  -5 2659.12 810.727   3
 -12   8  -5 8021.53 1229.19   3
 -13   8  -5 6060.00 1108.79   3
 -14   8  -5 7926.09 1325.68   3
 -15   8  -5 6470.96 1287.41   3
 -12   9   5 17754.2 1931.04   2
 -11   9   5 16134.3 1778.90   2
 -10   9   5 19830.0 1904.49   2
  -9   9   5 17780.5 1743.68   2
  -8   9   5 15047.1 1574.49   2
  -7   9   5 12844.4 1406.13   2
  -6   9   5 8640.55 1154.12   2
  -5   9   5 2196.67 603.129   2
  -4   9   5 395.265 401.102   2
  -3   9   5 208.244 398.456   2
  -2   9   5 302.110 443.596   2
   1   9  -5 5204.13 732.843   3
  -1   9   5 5527.87 895.760   2
   0   9  -5 7708.25 862.698   3
   0   9   5 8425.94 1043.66   2
   0   9  -5 8344.44 796.354   2
  -1   9  -5 6430.24 720.057   2
  -1   9  -5 6043.93 763.236   3
   1   9   5 6182.54 910.917   2
  -2   9  -5 15094.1 1139.95   2
   2   9   5 17798.9 1451.58   2
  -2   9  -5 14464.6 1171.99   3
   3   9   5 22420.5 1633.82   2
  -3   9  -5 23085.3 1492.12   3
  -3   9  -5 21688.5 1421.73   2
  -4   9  -5 16977.3 1322.74   3
   4   9   5 19781.2 1533.28   2
  -4   9  -5 19487.0 1405.68   2
  -5   9  -5 20537.1 1479.61   3
   5   9   5 19944.9 1584.59   2
  -5   9  -5 20039.7 1488.88   2
  -6   9  -5 18200.1 1415.07   3
  -6   9  -5 18974.3 1515.70   2
  -7   9  -5 21569.0 1615.66   3
  -7   9  -5 23821.5 1780.28   2
  -8   9  -5 22558.0 1692.94   3
  -8   9  -5 21924.8 1786.44   2
  -9   9  -5 20048.5 1649.28   3
  -9   9  -5 19803.5 1811.80   2
 -10   9  -5 12678.8 1513.25   2
 -10   9  -5 12002.0 1346.11   3
 -11   9  -5 5224.50 990.914   3
 -11   9  -5 7242.71 1259.25   2
 -12   9  -5 2399.75 867.451   2
 -12   9  -5 4062.77 994.649   3
 -13   9  -5 1621.25 684.754   3
 -14   9  -5-525.103 598.835   3
 -10  10   5 2755.01 854.073   2
  -9  10   5 4805.29 1009.29   2
  -8  10   5 6442.06 1110.22   2
  -7  10   5 15704.4 1633.78   2
  -6  10   5 12881.9 1451.81   2
  -5  10   5 10445.7 1311.22   2
  -4  10   5 12035.2 1379.52   2
  -3  10   5 17918.4 1630.25   2
   2  10  -5 20272.5 1476.56   3
  -2  10   5 18888.4 1644.36   2
  -1  10   5 20778.1 1683.76   2
   1  10  -5 19671.0 1438.81   3
   0  10  -5 18549.6 1393.39   3
   0  10   5 20204.4 1652.39   2
  -1  10  -5 9753.69 1019.97   3
   1  10   5 9941.86 1175.38   2
  -2  10  -5 7334.35 853.545   2
  -2  10  -5 6604.25 854.758   3
   2  10   5 8811.53 1100.29   2
   3  10   5 3454.01 767.575   2
  -3  10  -5 3551.77 684.837   2
  -3  10  -5 2448.31 575.880   3
  -4  10  -5 2144.89 582.082   2
  -4  10  -5 1940.59 577.624   3
   4  10   5 2106.10 606.964   2
   5  10   5 2065.34 657.203   2
  -5  10  -5 1988.73 584.610   2
  -5  10  -5 2412.22 623.885   3
  -6  10  -5 2395.91 656.567   2
  -6  10  -5 2035.18 574.846   3
  -7  10  -5 669.443 469.003   2
  -7  10  -5 1587.79 534.255   3
  -8  10  -5 42.0123 443.892   2
  -8  10  -5-69.8035 443.642   3
  -9  10  -5 539.472 502.525   3
  -9  10  -5 172.151 475.722   2
 -10  10  -5 3427.50 804.891   3
 -10  10  -5 5933.91 1145.15   2
 -11  10  -5 8331.22 1340.81   2
  -7  11   5 34.7416 445.579   2
  -6  11   5 1029.78 513.137   2
  -5  11   5 325.101 547.976   2
  -4  11   5 365.965 503.019   2
   3  11  -5-907.952 550.960   3
  -3  11   5 378.858 483.296   2
   2  11  -5 37.8103 373.802   3
  -2  11   5 69.2099 411.960   2
   1  11  -5-270.126 454.654   3
  -1  11   5-116.099 410.561   2
   0  11  -5 605.082 415.728   3
   0  11   5 684.979 529.145   2
   1  11   5-248.528 476.952   2
   2  11   5 1431.85 635.620   2
   3  11   5 218.865 465.071   2
   4  11   5 1028.07 471.363   2
   5  11   5 3197.00 792.976   2
  -5  11  -5 3632.18 756.098   2
  -6  11  -5 3818.00 835.414   2
  -7  11  -5 1486.21 617.822   2
  -8  11  -5 3291.26 860.129   2
  -9  11  -5 1671.03 652.999   2
  -2  12   5 630.979 566.085   2
  -1  12   5-571.287 501.247   2
   0  12   5 313.097 581.004   2
   1  12   5 153.768 467.861   2
   2  12   5 414.358 520.088   2
   3  12   5 1193.44 517.476   2
   4  12   5 2081.63 728.098   2
  20   0  -6 1468.41 801.373   1
  19   0  -6 3113.50 983.917   1
  18   0  -6 4185.65 1133.54   1
  17   0  -6 6563.76 1217.71   1
  16   0  -6 1280.86 763.201   1
  15   0  -6 3435.87 965.760   1
  14   0  -6 1091.62 692.426   1
 -14   0   6 1548.55 545.292   2
 -13   0   6 720.812 474.511   2
  13   0  -6 2896.50 801.721   1
 -12   0   6 4889.56 782.010   2
  12   0  -6 5431.76 1001.26   1
  11   0  -6 20669.1 1784.20   1
 -11   0   6 19236.3 1360.18   2
  10   0  -6 1803.45 604.502   1
 -10   0   6 2473.25 491.894   2
  -9   0   6 1167.55 341.986   2
   9   0  -6 393.291 456.107   1
  -8   0   6 3998.34 507.026   2
   8   0  -6 3289.49 694.590   1
   7   0  -6 731.557 347.130   1
  -7   0   6 322.470 204.034   2
   6   0  -6 11197.2 1096.77   1
  -6   0   6 11247.0 715.407   2
   5   0  -6 33255.9 1822.63   1
  -5   0   6 33906.2 1195.08   2
   4   0  -6 58565.7 2315.88   1
   4   0  -6 57774.9 1492.09   2
  -4   0   6 59291.6 1570.13   2
   3   0  -6 118885. 3292.22   1
   3   0  -6 115903. 2308.46   2
  -3   0   6 115727. 2363.00   2
  -2   0   6 172870. 3124.53   2
   2   0  -6 173702. 3070.56   2
  -1   0   6 318379. 5038.81   2
   1   0  -6 322182. 4969.13   2
   0   0  -6 318003. 4936.90   3
   0   0  -6 309819. 4976.70   2
  -1   0  -6 346958. 5638.35   2
  -1   0  -6 356489. 5473.21   3
  -2   0  -6 161352. 3131.23   3
  -3   0  -6 309158. 5215.07   3
  -4   0  -6 230166. 4405.84   3
  -5   0  -6 262849. 5100.63   3
  -6   0  -6 205921. 4529.38   3
  -7   0  -6 211218. 4835.21   3
  -8   0  -6 263632. 5872.21   3
  -9   0  -6 175912. 4796.77   3
 -10   0  -6 58044.3 2768.27   3
 -11   0  -6 47418.5 2646.95   3
 -12   0  -6 11970.6 1391.40   3
 -13   0  -6 7207.34 1159.70   3
 -14   0  -6 1347.09 633.645   3
 -15   0  -6 247.382 440.000   3
 -16   0  -6 487.889 590.476   3
 -17   0  -6 5309.46 1150.37   3
 -18   0  -6 12895.4 1689.70   3
  20  -1  -6 6004.12 1282.43   1
  20   1  -6 4606.58 1177.90   1
  19  -1  -6 6490.98 1283.11   1
 -19   1   6 6183.15 1232.60   2
  19   1  -6 6085.02 1263.86   1
 -18   1   6 5200.06 1061.31   2
  18  -1  -6 2296.31 864.541   1
  18   1  -6 2665.53 899.106   1
  17   1  -6 4085.20 1046.34   1
 -17   1   6 3888.56 931.789   2
  17  -1  -6 3346.04 1057.12   1
  16  -1  -6 1904.03 805.906   1
 -16   1   6 4270.50 931.198   2
  16   1  -6 3385.76 948.453   1
 -15   1   6 3878.03 875.350   2
  15   1  -6 1742.66 703.273   1
  15  -1  -6 3183.70 877.650   1
 -14   1   6 583.294 504.187   2
  14   1  -6-292.277 515.985   1
  14  -1  -6 753.716 589.217   1
 -13   1   6 3758.96 764.367   2
  13   1  -6 5647.61 1073.03   1
  13  -1  -6 6341.90 1219.14   1
 -12   1   6 1385.88 530.102   2
  12   1  -6 1715.79 704.268   1
  12  -1  -6 2156.99 861.421   1
 -11   1   6 5828.83 828.171   2
  11   1  -6 7446.77 1077.28   1
  11  -1  -6 7825.88 1193.22   1
 -11  -1   6 7056.12 819.602   2
  10   1  -6 5766.52 946.225   1
 -10  -1   6 6046.19 712.942   2
  10  -1  -6 5961.84 1013.03   1
 -10   1   6 5750.78 739.326   2
   9  -1  -6 9985.41 1248.60   1
  -9  -1   6 9864.08 795.366   2
  -9   1   6 9658.59 907.654   2
   9   1  -6 10113.0 1207.79   1
   8  -1  -6 17209.7 1541.80   1
  -8  -1   6 15727.7 916.857   2
  -8   1   6 15055.3 1073.68   2
  -7   1   6 29783.2 1391.67   2
   7  -1  -6 29875.7 1966.24   1
  -7  -1   6 30875.1 1156.86   2
   6  -1  -6 48428.7 2369.93   1
  -6   1   6 46373.2 1663.69   2
  -6  -1   6 46777.7 1318.70   2
  -5  -1   6 83248.0 1730.28   2
   5  -1  -6 77173.0 2980.89   1
   5  -1  -6 80013.1 2101.03   2
  -5   1   6 81455.8 2200.05   2
   4  -1  -6 102389. 3307.36   1
   4   1  -6 106387. 1948.12   2
   4  -1  -6 107491. 2452.41   2
  -4   1   6 110961. 2571.45   2
  -4  -1   6 109604. 2017.77   2
  -3  -1   6 166048. 2781.87   2
   3  -1  -6 162902. 4094.80   1
  -3   1   6 167928. 3318.41   2
   3  -1  -6 170328. 3248.29   2
   3   1  -6 168072. 2714.16   2
  -2   1   6 102145. 2361.08   2
   2  -1  -6 102113. 2859.38   1
   2  -1  -6 100206. 2297.28   2
   2   1  -6 100040. 1923.98   2
   1   1  -6 78989.8 1698.66   2
   1  -1  -6 80497.0 2245.04   1
   1  -1  -6 77402.0 1970.42   2
  -1   1   6 79657.5 2038.10   2
   0   1   6 71081.1 1928.39   2
   0   1  -6 67267.0 1686.90   2
   0  -1  -6 68006.8 1600.21   3
   0  -1  -6 69671.0 1816.06   1
   0  -1  -6 64713.5 1816.69   2
  -1  -1  -6 46450.8 1319.94   3
  -1   1  -6 46644.2 1481.53   3
  -1  -1  -6 45275.0 1187.15   1
  -2  -1  -6 43480.7 1354.80   3
  -2   1  -6 42238.2 1440.54   3
   2   1   6 42147.5 1303.06   3
  -3  -1  -6 6160.66 544.217   3
   3   1   6 4598.51 465.130   3
  -3   1  -6 5142.27 525.239   3
  -4   1  -6 3464.59 476.547   3
  -4  -1  -6 2212.60 387.137   3
  -5   1  -6 2123.08 414.623   3
  -5  -1  -6 1586.25 324.194   3
  -6  -1  -6 2548.04 503.950   3
  -6   1  -6 1893.05 243.776   1
  -6   1  -6 1547.89 378.088   3
  -7  -1  -6 3269.65 586.208   3
  -7   1  -6 3179.52 523.084   3
  -7   1  -6 2958.53 317.646   1
  -8  -1  -6 4525.18 722.384   3
  -8   1  -6 5387.71 699.656   3
  -8   1  -6 4893.16 479.064   1
  -9   1  -6 22934.3 1117.36   1
  -9  -1  -6 23820.3 1709.63   3
  -9   1  -6 21561.4 1521.77   3
 -10  -1  -6 44990.5 2479.11   3
 -10   1  -6 48143.6 2423.19   3
 -11  -1  -6 65012.2 3119.73   3
 -11   1  -6 64809.4 3026.46   3
 -12  -1  -6 46267.0 2716.40   3
 -12   1  -6 53473.0 2865.06   3
 -13  -1  -6 76215.7 3576.63   3
 -13   1  -6 69835.8 3490.88   3
 -14  -1  -6 63070.3 3338.63   3
 -14   1  -6 55954.6 3217.02   3
 -15  -1  -6 43707.4 2801.13   3
 -15   1  -6 39998.1 2764.76   3
 -16  -1  -6 48437.0 3069.69   3
 -16   1  -6 49146.7 3137.54   3
 -17  -1  -6 35170.7 2644.69   3
 -17   1  -6 37736.4 2796.34   3
 -18  -1  -6 35182.4 2724.44   3
 -18   1  -6 27587.2 2462.75   3
  20   2  -6 111.405 546.482   1
 -20   2   6 1394.04 792.370   2
  19   2  -6 1577.44 730.667   1
 -19   2   6 1511.82 805.401   2
  18  -2  -6-207.608 474.522   1
 -18   2   6 501.134 552.585   2
  18   2  -6 920.669 691.358   1
 -17   2   6 1636.48 671.675   2
  17   2  -6 1970.81 824.776   1
  17  -2  -6 2822.55 1048.05   1
 -16   2   6 11828.0 1480.07   2
  16  -2  -6 12362.1 1673.38   1
  16   2  -6 11538.7 1555.66   1
  15   2  -6 16178.4 1760.32   1
 -15   2   6 16135.7 1675.16   2
  15  -2  -6 17462.8 1899.36   1
  14   2  -6 52499.1 3058.68   1
 -14   2   6 52170.9 2844.37   2
  14  -2  -6 57590.5 3348.86   1
  13   2  -6 82345.2 3746.58   1
 -13   2   6 77145.5 3359.30   2
  13  -2  -6 87540.1 4038.03   1
  12   2  -6 44061.0 2631.48   1
 -12   2   6 49563.0 2499.03   2
  12  -2  -6 46605.9 2883.45   1
 -11   2   6 70061.0 2860.65   2
  11  -2  -6 67170.9 3377.98   1
 -10  -2   6 99650.9 2754.06   2
 -10   2   6 97832.2 3269.95   2
  10  -2  -6 91153.3 3851.90   1
   9  -2  -6 124314. 4392.03   1
  -9  -2   6 129293. 2920.90   2
  -9   2   6 125166. 3628.97   2
  -8  -2   6 141679. 2755.80   2
  -8   2   6 135595. 3677.65   2
   8  -2  -6 129645. 4408.45   1
  -7   2   6 156657. 3807.80   2
  -7  -2   6 156698. 2662.83   2
   7  -2  -6 154957. 4653.12   1
   6  -2  -6 174864. 3664.44   3
  -6   2   6 187361. 4098.80   2
   6  -2  -6 190342. 4980.75   1
  -6  -2   6 182071. 2725.57   2
   5  -2  -6 191760. 4813.95   1
  -5   2   6 195190. 4095.62   2
   4  -2  -6 99767.9 3086.78   1
  -4   2   6 97540.3 2586.91   2
   3   2  -6 68067.1 1191.13   2
   3  -2  -6 72081.9 2373.20   1
  -3   2   6 71189.6 2078.51   2
   2   2  -6 104457. 1768.64   2
  -2   2   6 108547. 3336.60   1
  -2   2   6 105644. 2599.33   2
   2  -2  -6 100458. 2680.25   1
   1  -2  -6 85152.8 1669.69   3
  -1   2   6 88911.0 2823.34   1
  -1   2   6 86597.9 2292.18   2
   0   2   6 70599.3 2076.33   2
   0  -2  -6 73565.1 1574.24   3
   0   2   6 77019.0 2416.93   1
   1   2   6 5370.50 558.926   2
  -1  -2  -6 5690.90 441.489   3
  -1   2  -6 6281.51 580.374   3
   1   2   6 6010.22 578.976   1
  -2   2  -6 14728.6 864.260   3
   2   2   6 15739.0 721.684   3
   2   2   6 15237.8 826.600   1
  -2  -2  -6 14894.9 762.842   3
  -3   2  -6 19032.3 991.804   3
   3   2   6 17332.2 871.284   3
   3   2   6 18839.5 783.879   1
  -3  -2  -6 16815.0 907.148   3
  -4   2  -6 25946.6 1236.10   3
  -4  -2  -6 27396.3 1310.36   3
  -5   2  -6 37126.9 1579.69   3
  -5  -2  -6 40968.0 1770.32   3
  -6   2  -6 30371.9 1496.23   3
  -6  -2  -6 32797.7 1686.20   3
  -7   2  -6 30759.5 1594.90   3
  -7  -2  -6 33131.8 1863.81   3
  -8   2  -6 34268.5 1794.84   3
   8   2   6 36372.8 1047.59   1
  -8   2  -6 33600.0 1314.90   1
  -8  -2  -6 36263.2 2061.37   3
  -9   2  -6 35090.8 1924.07   3
  -9   2  -6 34314.6 1480.33   1
  -9  -2  -6 33291.4 2071.06   3
   9   2   6 37803.1 1235.41   1
 -10   2  -6 68532.9 2888.96   3
 -10  -2  -6 68766.7 3132.97   3
  10   2   6 75056.6 2040.26   1
 -11   2  -6 68064.3 3058.14   3
 -11  -2  -6 71293.4 3231.65   3
 -12   2  -6 47723.0 2622.08   3
 -12  -2  -6 49577.0 2794.90   3
 -13   2  -6 24220.0 1996.36   3
 -13  -2  -6 25218.9 2045.55   3
 -14   2  -6 33644.9 2465.59   3
 -14  -2  -6 34137.6 2451.38   3
 -15   2  -6 12881.1 1605.56   3
 -15  -2  -6 13316.5 1575.11   3
 -16  -2  -6 5719.78 1074.87   3
 -16   2  -6 5160.90 1086.76   3
 -17  -2  -6 3902.21 1039.97   3
 -17   2  -6 3473.41 861.498   3
 -18  -2  -6 5563.97 1143.67   3
 -20   3   6 13366.7 1832.35   2
  19   3  -6 24078.6 2325.54   1
 -19   3   6 20844.1 2155.69   2
  18   3  -6 31622.6 2627.58   1
 -18   3   6 25080.7 2332.02   2
  17   3  -6 41119.2 2934.90   1
 -17   3   6 39002.5 2810.38   2
  16   3  -6 39883.0 2795.93   1
 -16   3   6 43519.0 2846.63   2
  15   3  -6 40064.4 2730.48   1
 -15   3   6 41712.3 2690.23   2
 -14   3   6 54453.3 2968.43   2
  14   3  -6 56886.1 3153.88   1
 -13   3   6 34921.9 2263.53   2
  12  -3  -6 22096.2 2085.56   1
 -12   3   6 23094.5 1755.04   2
  11  -3  -6 23461.7 2046.66   1
 -11   3   6 22362.6 1670.76   2
  10  -3  -6 11196.9 1397.36   1
 -10   3   6 11058.8 1144.49   2
  -9   3   6 4181.05 725.661   2
   9  -3  -6 3714.56 857.104   1
  -9  -3   6 4413.63 403.847   2
  -8   3   6 129.383 331.768   2
  -8  -3   6 420.570 98.2619   2
  -7   3   6 3011.43 562.159   2
  -6   3   6 8587.94 827.366   2
   6  -3  -6 7585.95 686.206   3
   5  -3  -6 49371.1 1626.53   3
  -5   3   6 52966.0 1989.51   2
   4  -3  -6 31800.0 1078.95   3
  -4   3   6 32724.0 1499.91   2
  -3   3   6 44664.8 1757.77   2
  -2   3   6 79589.7 2374.99   2
   2  -3  -6 76671.9 1382.67   3
   1  -3  -6 139798. 2204.29   3
  -1   3   6 138908. 3476.49   1
  -1   3   6 135538. 3263.19   2
   0  -3  -6 215077. 3346.32   3
   0   3   6 219871. 4358.25   2
   0   3   6 215868. 4326.26   1
   1   3   6 316221. 5657.93   2
  -1  -3  -6 309560. 4793.90   3
  -1   3  -6 313995. 5435.18   3
   1   3   6 310470. 5413.08   1
   2   3   6 248485. 4837.89   2
   2   3   6 249841. 3940.64   3
  -2   3  -6 255954. 4698.59   3
  -2  -3  -6 240019. 4384.39   3
   3   3   6 277684. 4623.84   3
  -3   3  -6 275692. 5111.47   3
  -3  -3  -6 280826. 5194.36   3
   4   3   6 183355. 3690.58   3
  -4   3  -6 183490. 3940.35   3
  -4  -3  -6 186761. 4285.55   3
  -5   3  -6 118486. 3106.45   3
  -5  -3  -6 118291. 3491.47   3
  -6   3  -6 107947. 3034.72   3
  -6  -3  -6 110786. 3507.44   3
  -7   3  -6 69804.0 2455.55   3
  -7  -3  -6 72262.2 2868.90   3
  -8   3  -6 57846.6 2374.42   3
  -8  -3  -6 59838.3 2691.80   3
  -9  -3  -6 58912.6 2757.96   3
   9   3   6 58738.8 1742.96   1
  10   3   6 35114.7 1409.06   1
 -10  -3  -6 31685.7 2096.29   3
 -10   3  -6 31934.8 1932.44   3
 -11  -3  -6 41061.7 2429.31   3
 -11   3  -6 35937.3 2142.70   3
 -12   3  -6 13329.0 1365.55   3
 -12  -3  -6 17100.4 1645.57   3
 -13   3  -6 16207.2 1606.66   3
 -13  -3  -6 17647.0 1679.20   3
 -14   3  -6 1353.04 596.756   3
 -14  -3  -6 2417.97 752.622   3
 -15   3  -6-509.521 676.547   3
 -15  -3  -6 108.895 512.559   3
 -16   3  -6-564.990 776.647   3
 -16  -3  -6 276.472 608.738   3
 -17  -3  -6 612.606 707.849   3
 -17   3  -6 376.058 587.613   3
 -18  -3  -6 1691.71 856.357   3
 -19   4   6 866.311 719.347   2
  19   4  -6 709.972 581.297   1
 -18   4   6 1414.06 676.221   2
  18   4  -6 577.108 535.066   1
  17   4  -6 2329.52 880.111   1
 -17   4   6 2357.68 773.773   2
  16   4  -6 4414.50 958.042   1
 -16   4   6 4050.65 978.169   2
 -15   4   6 3753.45 927.822   2
 -14   4   6 8373.91 1248.18   2
 -13   4   6 10845.6 1366.61   2
 -12   4   6 37399.1 2314.70   2
 -11   4   6 44753.2 2445.87   2
 -10   4   6 40689.8 2252.45   2
  -9   4   6 40760.5 2148.30   2
  -8   4   6 42328.0 2105.55   2
  -7   4   6 49869.2 2220.86   2
   7  -4  -6 47116.5 2071.08   3
   6  -4  -6 37238.1 1691.32   3
  -6   4   6 43577.7 1979.62   2
  -5   4   6 35392.1 1719.92   2
   5  -4  -6 30832.5 1320.95   3
  -4   4   6 65761.0 2371.79   2
   4  -4  -6 63893.9 1620.22   3
  -3   4   6 48556.2 1957.65   2
   2   4  -6 31040.2 825.427   2
  -2   4   6 29524.5 1475.32   2
  -1   4   6 7106.49 796.748   2
   0   4   6 2058.56 474.593   2
  -1  -4  -6 5151.96 381.621   3
   1   4   6 6628.59 734.703   2
   2   4   6 716.896 334.746   2
   2   4   6 1183.36 204.595   3
  -2   4  -6 1387.91 442.780   3
  -2  -4  -6 439.572 172.814   3
   3   4   6 1888.61 430.770   2
   3   4   6 2641.91 309.395   3
  -3  -4  -6 2137.37 388.856   3
  -3   4  -6 2867.67 517.924   3
  -4  -4  -6-315.860 309.328   3
  -4   4  -6-113.986 229.520   3
  -5   4  -6 759.228 350.453   3
  -5  -4  -6-44.8068 258.303   3
  -6   4  -6 949.406 367.704   3
  -6  -4  -6 510.076 261.274   3
  -7   4  -6 12901.0 1061.59   3
  -7  -4  -6 13454.2 1225.48   3
  -8   4  -6 22811.9 1470.58   3
  -8  -4  -6 24669.9 1724.17   3
  -9   4  -6 5388.31 766.038   3
  -9  -4  -6 7406.68 987.078   3
 -10   4  -6 5678.32 816.679   3
 -10  -4  -6 5381.43 933.878   3
 -11   4  -6 547.750 509.145   3
 -11  -4  -6 572.630 526.407   3
 -12   4  -6 3290.77 763.853   3
 -12  -4  -6 3422.93 826.132   3
 -13   4  -6 2884.17 815.010   3
 -13  -4  -6 2209.48 721.221   3
 -14   4  -6 1100.10 590.169   3
 -14  -4  -6 894.448 586.888   3
 -15   4  -6 1605.29 647.822   3
 -15  -4  -6 699.133 627.699   3
 -16   4  -6 2154.74 820.927   3
 -16  -4  -6 2117.21 689.367   3
 -17   4  -6-467.857 790.892   3
  18   5  -6 832.731 640.406   1
 -18   5   6 1870.39 926.442   2
  17   5  -6 2541.60 813.795   1
 -17   5   6 2690.30 895.066   2
 -16   5   6 1844.40 833.367   2
 -15   5   6 1128.82 621.464   2
 -14   5   6 3163.09 896.729   2
 -13   5   6 1822.59 733.101   2
 -12   5   6 611.566 472.766   2
 -11   5   6 2025.87 684.175   2
 -10   5   6 7449.58 999.442   2
  -9   5   6 7739.56 993.667   2
  -8   5   6 6776.57 870.640   2
   7  -5  -6 3574.19 453.583   3
  -7   5   6 3983.45 692.457   2
   6  -5  -6 4651.92 415.537   3
  -6   5   6 4755.82 733.752   2
   5  -5  -6 2021.59 211.438   3
  -5   5   6 2143.26 489.453   2
  -4   5   6 2878.08 545.430   2
  -3   5   6 5876.33 731.376   2
   3   5  -6 6067.23 304.615   2
   2   5  -6 1829.85 221.494   2
  -2   5   6 1770.60 476.453   2
   1   5  -6 1347.25 259.387   2
  -1   5   6 1397.31 420.315   2
   0   5   6 1140.87 378.836   2
   1   5   6 7553.14 784.760   2
  -1   5  -6 8740.03 793.203   3
   2   5   6 7949.40 826.129   2
   2   5   6 8307.18 413.140   3
  -2   5  -6 9180.04 816.689   3
   3   5   6 7951.67 820.494   2
   3   5   6 7691.37 510.587   3
  -3   5  -6 6730.05 731.262   3
  -4   5  -6 9070.85 850.196   3
   4   5   6 10155.4 921.959   2
   4   5   6 10435.4 709.691   3
  -5   5  -6 6289.28 758.399   3
  -6   5  -6 9312.27 908.529   3
  -6  -5  -6 11161.8 968.784   3
  -7   5  -6 8666.72 921.957   3
  -7  -5  -6 8409.33 915.450   3
  -8   5  -6 17445.2 1335.13   3
  -8  -5  -6 16096.0 1350.87   3
  -9   5  -6 25043.4 1652.10   3
  -9  -5  -6 24660.0 1754.12   3
 -10  -5  -6 22931.5 1781.52   3
 -10   5  -6 21072.7 1585.05   3
 -11  -5  -6 22898.3 1858.00   3
 -11   5  -6 22439.1 1710.88   3
 -12   5  -6 20309.2 1742.77   3
 -13   5  -6 14017.8 1492.74   3
 -14   5  -6 8457.94 1302.31   3
 -15   5  -6 7754.86 1286.11   3
 -16   5  -6 7398.68 1260.16   3
 -17   6   6 938.813 712.777   2
 -16   6   6 4180.70 1042.71   2
 -15   6   6 1142.18 650.672   2
 -14   6   6 9038.05 1376.78   2
 -13   6   6 8919.91 1330.42   2
 -12   6   6 10601.5 1354.57   2
 -11   6   6 17169.5 1619.42   2
 -10   6   6 13697.5 1412.35   2
  -9   6   6 10698.4 1200.85   2
  -8   6   6 8709.29 1059.15   2
  -7   6   6 14777.8 1290.41   2
  -6   6   6 20145.9 1484.80   2
  -5   6   6 22121.6 1501.89   2
   4   6  -6 37957.7 888.033   2
  -4   6   6 37445.7 1972.77   2
  -3   6   6 40120.7 2002.16   2
   3   6  -6 42481.5 1118.79   2
   2   6  -6 42333.8 1235.09   2
  -2   6   6 40552.2 1995.93   2
   1   6  -6 21843.6 931.410   2
  -1   6   6 20951.5 1404.24   2
   0   6  -6 7399.91 581.538   2
   0   6   6 7950.58 858.153   2
   1   6   6 9124.31 909.669   2
  -1   6  -6 9513.84 840.097   3
  -1   6  -6 10732.9 762.235   2
   2   6   6 7199.77 313.482   3
  -2   6  -6 8210.92 800.669   3
   2   6   6 8739.20 884.699   2
   3   6   6 18004.4 1287.84   2
   3   6   6 16400.4 735.303   3
  -3   6  -6 17488.8 1193.10   3
   4   6   6 17047.7 1294.02   2
  -4   6  -6 15760.9 1152.35   3
  -5   6  -6 12784.1 1067.56   3
  -6   6  -6 20295.6 1381.08   3
  -7   6  -6 1368.88 445.739   3
  -8   6  -6 1186.67 468.796   3
  -9   6  -6 3792.36 743.697   3
 -10   6  -6 91.9994 436.325   3
 -11   6  -6 1438.57 549.533   3
 -12   6  -6 458.535 504.207   3
 -13   6  -6 1284.01 749.363   3
 -14   6  -6 1989.78 771.398   3
 -15   6  -6 2709.35 882.740   3
 -15   7   6-170.802 492.310   2
 -14   7   6 3095.64 963.805   2
 -13   7   6 1537.29 756.111   2
 -12   7   6 1194.21 679.554   2
 -11   7   6 4380.74 993.288   2
 -10   7   6 6868.10 1101.87   2
  -9   7   6 7230.76 1078.85   2
  -8   7   6 7799.21 1081.20   2
  -7   7   6 4858.63 845.453   2
  -6   7   6 3803.53 742.819   2
  -5   7   6 8372.48 1010.65   2
  -4   7   6 2049.73 541.364   2
  -3   7   6 8884.58 995.229   2
   3   7  -6 10257.1 600.854   2
  -2   7   6 5188.95 788.290   2
   2   7  -6 4781.55 445.310   2
  -1   7   6 7745.69 906.950   2
   1   7  -6 7743.81 606.340   2
   0   7  -6 8316.48 839.682   3
   0   7  -6 7059.85 616.927   2
   0   7   6 7203.82 886.508   2
  -1   7  -6 1187.53 298.813   2
  -1   7  -6 1341.72 389.931   3
   1   7   6 1688.75 475.410   2
  -2   7  -6 283.395 251.217   2
  -2   7  -6 666.214 352.103   3
   2   7   6-10.3050 268.914   2
   3   7   6 817.706 456.491   2
  -3   7  -6-90.9549 249.225   2
  -3   7  -6 372.791 337.476   3
   4   7   6-262.337 315.375   2
  -4   7  -6-306.979 391.870   3
  -5   7  -6 721.607 414.773   3
  -6   7  -6 2037.66 534.947   3
  -7   7  -6 396.230 411.399   3
  -8   7  -6 247.799 342.081   3
  -9   7  -6-183.380 402.478   3
 -10   7  -6 1286.09 547.333   3
 -11   7  -6-370.111 482.423   3
 -12   7  -6 2694.63 844.722   3
 -13   7  -6 89.4047 440.320   3
 -14   7  -6 74.3749 435.045   3
 -15   7  -6 310.595 595.185   3
 -14   8   6 602.128 781.821   2
 -13   8   6 550.300 612.711   2
 -12   8   6 462.244 605.854   2
 -11   8   6 389.859 547.919   2
 -10   8   6 366.055 577.073   2
  -9   8   6 642.677 522.762   2
  -8   8   6-211.039 525.158   2
  -7   8   6-148.903 509.062   2
  -6   8   6 4951.35 857.091   2
  -5   8   6 6163.45 919.251   2
  -4   8   6 15436.7 1419.10   2
  -3   8   6 23372.5 1695.72   2
  -2   8   6 21958.3 1624.16   2
   1   8  -6 27281.9 1249.25   2
  -1   8   6 28671.0 1817.55   2
   0   8  -6 13261.3 1087.90   3
   0   8  -6 13477.3 928.956   2
   0   8   6 13313.5 1240.80   2
   1   8   6 16581.7 1371.03   2
  -1   8  -6 16978.7 1254.77   3
  -1   8  -6 17855.2 1107.63   2
   2   8   6 18018.5 1448.60   2
  -2   8  -6 20812.3 1395.26   3
  -2   8  -6 18568.1 1182.43   2
   3   8   6 21518.7 1577.53   2
  -3   8  -6 24561.7 1558.31   3
  -3   8  -6 21627.8 1346.45   2
   4   8   6 20115.2 1546.64   2
  -4   8  -6 18460.8 1355.99   3
  -4   8  -6 20540.7 1396.41   2
   5   8   6 14797.5 1309.27   2
  -5   8  -6 16311.1 1337.27   3
  -5   8  -6 14469.4 1238.05   2
  -6   8  -6 11482.9 1141.53   3
  -6   8  -6 10884.3 1124.62   2
  -7   8  -6 9312.60 1074.49   3
  -7   8  -6 8218.35 1061.30   2
  -8   8  -6 6656.07 958.954   3
  -9   8  -6 3296.17 771.931   3
 -10   8  -6 1397.36 524.893   3
 -11   8  -6 954.723 586.645   3
 -12   8  -6 1481.36 694.094   3
 -13   8  -6 1199.39 626.043   3
 -14   8  -6 951.330 575.293   3
 -12   9   6 3768.80 1042.89   2
 -11   9   6 1554.14 685.842   2
 -10   9   6 3912.99 985.921   2
  -9   9   6 3115.07 825.501   2
  -8   9   6 4166.88 911.145   2
  -7   9   6 5345.28 968.661   2
  -6   9   6 7286.45 1093.72   2
  -5   9   6 12845.9 1380.63   2
  -4   9   6 9125.16 1150.00   2
  -3   9   6 7958.04 1059.53   2
  -2   9   6 2095.77 664.171   2
  -1   9   6 1740.77 623.329   2
   1   9  -6 1797.40 515.486   3
   0   9  -6 2937.56 622.523   3
   0   9   6 2992.81 671.424   2
  -1   9  -6 2162.72 445.878   2
  -1   9  -6 1694.31 479.570   3
   1   9   6 2229.83 598.920   2
  -2   9  -6 3089.98 534.856   2
  -2   9  -6 4134.50 713.903   3
   2   9   6 3948.06 771.053   2
   3   9   6 282.898 408.038   2
  -3   9  -6-86.5483 262.941   2
  -3   9  -6-101.338 315.196   3
   4   9   6 169.741 341.791   2
  -4   9  -6 839.253 366.466   2
  -4   9  -6 58.5198 350.649   3
   5   9   6 583.613 404.182   2
  -5   9  -6 1087.93 388.176   2
  -5   9  -6 1029.33 449.684   3
  -6   9  -6 5044.49 815.446   2
  -6   9  -6 4504.62 776.447   3
  -7   9  -6 11568.0 1289.44   2
  -7   9  -6 10324.3 1153.00   3
  -8   9  -6 4234.98 880.765   2
  -8   9  -6 3303.67 734.799   3
  -9   9  -6 9002.20 1280.69   2
  -9   9  -6 8511.00 1120.53   3
 -10   9  -6 7156.91 1208.02   2
 -10   9  -6 5938.88 1011.64   3
 -11   9  -6 14602.6 1578.26   3
 -11   9  -6 13346.8 1694.94   2
 -12   9  -6 12098.9 1480.71   3
 -12   9  -6 11625.1 1610.54   2
 -13   9  -6 14743.9 1711.16   3
  -9  10   6 4342.26 917.798   2
  -8  10   6 359.314 508.854   2
  -7  10   6 2570.41 808.764   2
  -6  10   6 3285.00 882.622   2
  -5  10   6 3440.16 783.156   2
  -4  10   6 804.851 533.618   2
  -3  10   6 344.772 414.635   2
   2  10  -6 1089.11 496.986   3
  -2  10   6 1329.45 653.238   2
   1  10  -6 107.310 357.586   3
  -1  10   6-207.636 501.084   2
   0  10  -6 1934.78 575.414   3
   0  10   6 306.474 451.244   2
  -1  10  -6 2986.30 640.973   3
   1  10   6 2801.49 661.143   2
   2  10   6 5552.50 949.803   2
  -2  10  -6 4912.75 808.284   3
   3  10   6 7937.84 1105.38   2
  -3  10  -6 6386.08 896.965   3
   4  10   6 6985.47 1049.68   2
  -4  10  -6 6878.53 924.825   2
  -4  10  -6 7540.26 1005.47   3
  -5  10  -6 14812.5 1383.61   3
   5  10   6 12464.5 1339.04   2
  -5  10  -6 15445.2 1391.45   2
  -6  10  -6 15574.6 1414.35   3
  -6  10  -6 13774.0 1358.75   2
  -7  10  -6 11447.1 1266.20   3
  -7  10  -6 13726.2 1423.06   2
  -8  10  -6 13942.1 1421.46   3
  -8  10  -6 15225.1 1597.10   2
  -9  10  -6 12857.0 1548.28   2
  -9  10  -6 12734.2 1404.12   3
 -10  10  -6 10233.9 1288.66   3
 -10  10  -6 9865.80 1437.47   2
 -11  10  -6 9420.82 1328.28   3
  -6  11   6 3008.29 870.472   2
  -5  11   6 5015.45 1049.24   2
  -4  11   6 5021.95 979.383   2
   3  11  -6 7697.93 1052.82   3
  -3  11   6 9712.55 1319.10   2
   2  11  -6 13509.9 1323.48   3
  -2  11   6 11990.7 1432.18   2
   1  11  -6 16826.9 1460.52   3
  -1  11   6 16675.7 1625.57   2
   0  11  -6 12778.6 1276.62   3
   0  11   6 12685.0 1416.40   2
  -1  11  -6 10508.9 1147.72   3
   1  11   6 12087.6 1413.19   2
   2  11   6 12877.3 1436.89   2
  -2  11  -6 11603.3 1226.71   3
   3  11   6 10872.1 1301.04   2
  -3  11  -6 11771.6 1224.09   3
   4  11   6 8794.58 1210.24   2
  -4  11  -6 11549.9 1215.27   3
   5  11   6 5608.09 997.881   2
  -8  11  -6 2256.29 729.276   2
  -9  11  -6-105.634 572.311   2
  19   0  -7 1051.67 627.713   1
  18   0  -7 158.765 514.122   1
  17   0  -7 297.631 564.977   1
 -16   0   7 130.372 384.981   2
  16   0  -7-421.661 547.712   1
  15   0  -7-455.788 657.381   1
 -15   0   7 166.671 450.573   2
 -14   0   7-112.184 332.222   2
  14   0  -7-358.960 517.731   1
 -13   0   7-30.2773 365.161   2
  13   0  -7-67.7155 555.032   1
 -12   0   7-466.931 393.583   2
  12   0  -7 71.1358 455.837   1
 -11   0   7-210.998 281.938   2
  11   0  -7-587.397 648.536   1
 -10   0   7 59.8848 221.422   2
  10   0  -7-412.164 626.248   1
  -9   0   7 526.725 284.882   2
   9   0  -7-808.797 536.818   1
   8   0  -7-20.8709 419.673   1
  -8   0   7 364.704 250.231   2
   7   0  -7 72.3993 327.352   1
  -7   0   7-347.169 283.011   2
   6   0  -7-128.746 355.715   1
  -6   0   7 88.3258 154.804   2
   5   0  -7-13.7595 380.430   1
   5   0  -7 4.73675 99.7886   2
  -5   0   7 91.2767 183.454   2
   4   0  -7 194.773 138.087   2
   4   0  -7 153.521 300.967   1
  -4   0   7 297.637 119.245   2
   3   0  -7 116.303 269.806   1
  -3   0   7-83.6021 122.058   2
   3   0  -7 21.8691 111.376   2
  -2   0   7 202.543 206.030   2
   2   0  -7-11.8887 194.208   1
   2   0  -7 66.5928 100.953   2
   1   0  -7 112.032 102.725   2
   0   0  -7 407.216 187.104   3
   0   0  -7 149.858 141.439   2
  -1   0  -7 176.982 200.085   3
  -2   0  -7 178.872 177.039   3
  -3   0  -7 90.7847 64.5182   1
  -3   0  -7 752.176 272.034   3
  -4   0  -7 117.597 188.063   3
  -5   0  -7-67.2474 228.532   3
  -6   0  -7 506.825 244.679   3
  -7   0  -7 444.198 366.000   3
  -8   0  -7 757.951 479.911   3
  -9   0  -7 650.184 458.887   3
 -10   0  -7 588.851 513.312   3
 -11   0  -7-936.521 592.798   3
 -12   0  -7-563.909 621.895   3
 -13   0  -7-138.990 590.981   3
 -14   0  -7-5.55215 608.991   3
 -15   0  -7 1015.47 664.309   3
 -16   0  -7-32.1556 663.343   3
 -17   0  -7 317.155 613.631   3
  19   1  -7 6034.00 1229.15   1
  19  -1  -7 9366.51 1555.42   1
  18   1  -7 8484.99 1397.52   1
 -18   1   7 8263.73 1324.65   2
  18  -1  -7 8557.06 1434.58   1
  17  -1  -7 12138.9 1649.09   1
 -17   1   7 11142.0 1473.22   2
  17   1  -7 12858.9 1680.79   1
 -16   1   7 12455.2 1448.57   2
  16  -1  -7 16000.1 1863.67   1
  16   1  -7 15864.7 1829.28   1
  15   1  -7 22704.8 2114.86   1
 -15   1   7 20155.4 1789.90   2
  15  -1  -7 21959.2 2112.60   1
  14   1  -7 42377.0 2828.65   1
 -14  -1   7 41356.4 2305.80   2
 -14   1   7 39711.0 2421.59   2
  14  -1  -7 41558.0 2827.70   1
  13   1  -7 45223.3 2871.81   1
 -13  -1   7 47000.5 2349.52   2
  13  -1  -7 52872.8 3091.46   1
 -13   1   7 47485.2 2508.07   2
  12   1  -7 45019.0 2778.08   1
  12  -1  -7 45794.1 2862.97   1
 -12  -1   7 44627.6 2143.28   2
 -12   1   7 44393.6 2309.88   2
  11   1  -7 62573.7 3182.44   1
  11  -1  -7 63204.3 3310.50   1
 -11  -1   7 64165.1 2427.45   2
 -11   1   7 63056.9 2644.43   2
  10   1  -7 51377.0 2764.84   1
  10  -1  -7 52691.8 2932.53   1
 -10  -1   7 48993.7 1939.00   2
 -10   1   7 51484.6 2257.69   2
   9   1  -7 47201.0 2558.52   1
   9  -1  -7 44296.4 2637.04   1
  -9  -1   7 49200.5 1763.51   2
  -9   1   7 49259.4 2099.22   2
   8   1  -7 46943.9 2438.61   1
   8  -1  -7 46003.8 2569.55   1
  -8   1   7 45345.6 1882.79   2
  -8  -1   7 43571.2 1502.69   2
   7  -1  -7 39167.5 2271.07   1
  -7   1   7 37909.8 1627.53   2
  -7  -1   7 40664.6 1320.43   2
   6  -1  -7 79288.0 3215.25   1
  -6   1   7 76824.6 2306.05   2
  -6  -1   7 78960.2 1851.69   2
   5  -1  -7 102719. 3554.67   1
  -5   1   7 109345. 2732.74   2
  -5  -1   7 106799. 2147.97   2
  -4  -1   7 33192.5 1056.46   2
   4  -1  -7 36020.1 1908.22   1
   4   1  -7 34960.4 1018.01   2
  -4   1   7 35776.1 1400.35   2
   3  -1  -7 7757.41 820.605   1
   3   1  -7 7486.99 460.707   2
  -3   1   7 8007.80 664.103   2
  -2   1   7 4770.42 497.782   2
   2  -1  -7 4188.56 544.546   1
   2   1  -7 5158.37 398.885   2
   1  -1  -7 1239.51 299.153   1
  -1   1   7 1349.30 282.508   2
   1   1  -7 1526.92 246.024   2
   0   1  -7 21353.2 941.514   2
   0   1   7 21266.1 1053.05   2
   0  -1  -7 21793.7 896.224   3
   0  -1  -7 20772.1 992.991   1
  -1  -1  -7 834.737 188.787   1
  -1  -1  -7 318.578 191.779   3
  -1   1  -7 439.286 247.090   3
  -2  -1  -7 17296.1 880.401   3
  -2   1  -7 16456.1 910.417   3
  -3  -1  -7 27980.5 1206.97   3
  -3   1  -7 27387.2 1224.97   3
  -4  -1  -7 36546.3 1523.53   3
  -4   1  -7 35920.6 1504.56   3
  -5  -1  -7 70979.7 2330.48   3
  -5   1  -7 67065.5 2202.24   3
  -6   1  -7 83566.6 2636.80   3
  -6   1  -7 82481.0 1703.79   1
  -6  -1  -7 87645.6 2800.18   3
  -7   1  -7 62138.1 2388.28   3
  -7   1  -7 66937.9 1611.51   1
  -7  -1  -7 65776.4 2548.12   3
  -8   1  -7 71884.6 2702.00   3
  -8   1  -7 78238.7 1942.56   1
  -8  -1  -7 76676.2 2963.56   3
  -9   1  -7 31233.6 1843.21   3
  -9  -1  -7 33645.4 2014.23   3
 -10  -1  -7 79693.8 3360.43   3
 -10   1  -7 77249.5 3149.97   3
 -11  -1  -7 61116.9 3088.25   3
 -11   1  -7 62637.4 2970.52   3
 -12  -1  -7 71494.2 3430.78   3
 -12   1  -7 69297.9 3290.41   3
 -13  -1  -7 56979.2 3164.04   3
 -13   1  -7 60595.2 3217.63   3
 -14  -1  -7 50723.2 3003.49   3
 -14   1  -7 53088.3 3136.81   3
 -15   1  -7 31175.5 2481.77   3
 -15  -1  -7 33883.2 2534.19   3
 -16   1  -7 19916.2 2053.65   3
 -16  -1  -7 17163.6 1890.18   3
 -17  -1  -7 4322.62 1050.16   3
 -17   1  -7 5446.00 1107.14   3
 -19   2   7 2763.11 939.156   2
  19  -2  -7 5314.05 1272.43   1
  19   2  -7 4760.95 1133.81   1
  18  -2  -7 7735.30 1415.78   1
 -18   2   7 6701.86 1252.91   2
  18   2  -7 6439.61 1277.69   1
 -17   2   7 2841.57 803.321   2
  17  -2  -7 2527.80 865.140   1
  17   2  -7 1804.45 794.190   1
 -16   2   7 2782.47 801.214   2
  16  -2  -7 2676.72 935.300   1
  16   2  -7 3184.27 861.926   1
 -15   2   7 2148.88 727.055   2
  15   2  -7 735.669 612.384   1
  15  -2  -7 1226.00 634.280   1
 -14   2   7 1204.42 553.147   2
  14   2  -7 763.393 579.117   1
  14  -2  -7 1554.32 701.919   1
  13   2  -7-106.809 525.010   1
 -13  -2   7 459.392 367.988   2
 -13   2   7-263.755 438.315   2
  13  -2  -7 195.679 475.661   1
  12   2  -7 924.166 548.547   1
 -12  -2   7 965.605 380.561   2
  12  -2  -7 573.202 460.813   1
 -12   2   7 1087.17 420.570   2
  11  -2  -7 10433.1 1356.34   1
 -11  -2   7 10503.9 884.137   2
 -11   2   7 10779.3 1144.24   2
 -10  -2   7 27091.4 1248.47   2
 -10   2   7 25122.0 1640.95   2
  10  -2  -7 24615.4 2011.22   1
  -9  -2   7 28434.3 1121.20   2
  -9   2   7 27944.8 1638.63   2
   9  -2  -7 28871.2 2079.93   1
   8  -2  -7 31794.9 2100.70   1
  -8   2   7 29532.3 1611.85   2
  -8  -2   7 28042.2 969.034   2
   7  -2  -7 62867.0 2898.75   1
  -7   2   7 64911.3 2321.34   2
  -7  -2   7 63894.8 1383.12   2
  -6  -2   7 45459.1 996.567   2
   6  -2  -7 44658.5 2301.43   1
  -6   2   7 46607.1 1876.17   2
   5  -2  -7 108295. 3517.95   1
  -5   2   7 107511. 2926.48   2
   4   2  -7 177631. 2645.46   2
   4  -2  -7 187952. 4560.79   1
  -4   2   7 193219. 4028.03   2
   3   2  -7 153169. 2435.11   2
   3  -2  -7 154772. 3841.35   1
  -3   2   7 156540. 3521.89   2
   2  -2  -7 251574. 4963.85   1
   2   2  -7 260335. 3846.04   2
  -2   2   7 251178. 4825.77   2
  -1   2   7 322491. 5653.00   2
   1   2  -7 322330. 4877.89   2
   1  -2  -7 316005. 4770.96   3
   0   2   7 176794. 3796.88   2
   0  -2  -7 178696. 3124.44   3
   0   2   7 179633. 4303.05   1
   1   2   7 102258. 2710.51   2
  -1  -2  -7 104831. 2272.93   3
   1   2   7 98617.3 2774.38   1
  -1   2  -7 102023. 2605.77   3
  -2  -2  -7 259792. 4595.89   3
   2   2   7 276397. 4709.10   1
  -2   2  -7 268314. 4927.85   3
  -3  -2  -7 146742. 3231.34   3
  -3   2  -7 144313. 3314.05   3
   3   2   7 142994. 3054.64   3
  -4  -2  -7 121467. 3044.56   3
  -4   2  -7 115431. 2966.89   3
  -5   2  -7 72128.7 2350.52   3
  -5  -2  -7 73916.4 2468.56   3
  -6   2  -7 70949.3 2432.93   3
  -6  -2  -7 76352.5 2679.95   3
  -7   2  -7 69888.5 2512.26   3
  -7  -2  -7 69955.9 2733.52   3
  -8   2  -7 15985.0 1230.92   3
  -8   2  -7 16137.1 860.332   1
  -8  -2  -7 20080.3 1557.48   3
  -9  -2  -7 7130.63 993.897   3
  -9   2  -7 6558.34 861.608   3
 -10  -2  -7 12121.7 1314.29   3
 -10   2  -7 13462.0 1327.95   3
 -11   2  -7 1155.96 583.855   3
 -11  -2  -7 264.527 585.074   3
 -12   2  -7 677.077 585.492   3
 -12  -2  -7 251.085 479.580   3
 -13   2  -7 127.462 522.248   3
 -13  -2  -7-319.489 556.742   3
 -14   2  -7 2549.87 805.091   3
 -14  -2  -7 4028.74 934.787   3
 -15   2  -7 3116.88 786.727   3
 -15  -2  -7 5393.22 1093.89   3
 -16   2  -7 6930.48 1271.69   3
 -16  -2  -7 8179.90 1338.95   3
 -17  -2  -7 12567.4 1634.34   3
 -17   2  -7 8795.52 1396.43   3
 -18  -2  -7 8295.64 1415.94   3
 -20   3   7-26.4841 671.505   2
 -19   3   7-691.964 653.374   2
  19   3  -7-426.605 649.849   1
 -18   3   7 541.277 643.279   2
  18   3  -7 135.663 623.588   1
 -17   3   7 699.884 638.902   2
  17   3  -7 648.472 674.345   1
  16   3  -7 2362.07 819.806   1
 -16   3   7 968.973 586.460   2
  15   3  -7 1751.57 617.293   1
 -15   3   7 2468.85 718.511   2
  14   3  -7 696.785 617.900   1
 -14   3   7 390.716 380.191   2
 -13   3   7 5302.79 991.533   2
  13  -3  -7 4707.19 1103.63   1
 -12   3   7 7202.91 1011.77   2
  12  -3  -7 6076.03 1114.29   1
  11  -3  -7 6079.82 1111.29   1
 -11   3   7 4831.06 809.987   2
 -10  -3   7 13497.9 688.715   2
 -10   3   7 12032.3 1185.90   2
  10  -3  -7 13967.3 1534.82   1
  -9   3   7 19297.1 1422.50   2
  -9  -3   7 16288.4 572.488   2
   9  -3  -7 18766.5 1771.28   1
  -8   3   7 23232.4 1496.51   2
   8  -3  -7 22956.5 1867.95   1
  -7   3   7 20838.1 1379.56   2
   7  -3  -7 25044.9 1854.75   1
   6  -3  -7 12214.0 819.006   3
  -6   3   7 14097.7 1101.11   2
  -5   3   7 3325.76 542.314   2
   5  -3  -7 3774.99 417.315   3
  -4   3   7 9863.52 891.287   2
  -3   3   7 7014.53 739.925   2
   2   3  -7 353.739 112.401   2
   2  -3  -7 253.133 109.277   3
  -2   3   7 147.337 241.803   2
   1  -3  -7 1095.66 174.728   3
  -1   3   7 955.622 333.671   2
   0   3   7 13544.1 968.033   2
   0  -3  -7 13027.9 618.909   3
   0   3   7 12969.5 1009.13   1
   1   3   7 2966.99 488.092   2
  -1  -3  -7 3267.21 344.160   3
   1   3   7 3336.26 490.307   1
  -1   3  -7 3285.45 511.578   3
  -2  -3  -7 12283.1 766.606   3
   2   3   7 12005.0 940.472   2
  -2   3  -7 11890.4 880.211   3
   2   3   7 11900.6 619.197   3
   2   3   7 12174.4 842.043   1
  -3  -3  -7 2337.15 414.043   3
  -3   3  -7 1551.84 392.855   3
   3   3   7 2043.13 302.333   3
   3   3   7 1550.87 296.684   1
  -4   3  -7 8287.61 754.510   3
   4   3   7 8763.11 580.147   1
  -4  -3  -7 9049.35 812.359   3
  -5  -3  -7 1575.23 410.750   3
   5   3   7 1879.29 251.681   1
  -5   3  -7 1854.77 441.713   3
  -6   3  -7 13188.4 1047.66   3
  -6  -3  -7 13298.3 1157.83   3
  -7  -3  -7 7563.17 905.703   3
   7   3   7 7907.74 390.461   1
  -7   3  -7 8107.10 860.481   3
  -8   3  -7 15508.2 1246.45   3
   8   3   7 16803.3 634.464   1
  -8  -3  -7 13670.1 1298.58   3
  -9   3  -7 41318.3 2103.62   3
  -9  -3  -7 41775.9 2337.78   3
 -10   3  -7 22199.7 1643.92   3
 -10  -3  -7 27329.6 1955.22   3
 -11   3  -7 6141.84 953.857   3
 -11  -3  -7 5280.99 886.029   3
 -12   3  -7 9738.55 1221.37   3
 -12  -3  -7 9540.21 1233.54   3
 -13   3  -7 2219.54 760.284   3
 -13  -3  -7 776.975 562.942   3
 -14   3  -7 757.286 565.162   3
 -14  -3  -7 291.304 494.851   3
 -15   3  -7 1343.66 654.277   3
 -15  -3  -7 1637.25 747.019   3
 -16  -3  -7 1033.24 687.688   3
 -16   3  -7 1246.15 768.357   3
 -17   3  -7 1388.29 739.622   3
 -17  -3  -7 3443.88 963.454   3
 -19   4   7 2654.64 978.107   2
 -18   4   7 1069.40 662.202   2
  18   4  -7 903.697 563.707   1
  17   4  -7 3967.93 1009.44   1
 -17   4   7 3548.61 991.595   2
  16   4  -7 5888.95 1179.23   1
 -16   4   7 5359.67 1137.43   2
 -15   4   7 7994.62 1304.57   2
 -14   4   7 6843.07 1126.86   2
 -13   4   7 5837.57 1002.27   2
 -12   4   7 15607.5 1548.79   2
 -11   4   7 14798.9 1438.27   2
 -10   4   7 23707.6 1739.35   2
  -9   4   7 11433.7 1177.25   2
  -8   4   7 9339.72 1045.50   2
   7  -4  -7 6563.56 775.071   3
  -7   4   7 5546.69 795.661   2
   6  -4  -7 628.378 273.652   3
  -6   4   7 807.770 395.371   2
   5  -4  -7-178.346 216.185   3
  -5   4   7 378.594 337.344   2
  -4   4   7 1734.55 404.517   2
   4  -4  -7 1673.14 272.989   3
   3  -4  -7 5203.42 260.691   3
   3  -4  -7 4895.77 348.140   3
  -3   4   7 4527.93 632.033   2
  -2   4   7 18103.2 1201.53   2
  -1   4   7 21926.1 1300.73   2
   0  -4  -7 408.130 123.577   3
   0   4   7 249.675 219.426   2
  -1  -4  -7 1438.30 240.910   3
   1   4   7 1418.52 398.889   2
  -1   4  -7 1891.63 417.553   3
   2   4   7 1690.47 339.178   1
   2   4   7 1533.58 385.066   2
  -2   4  -7 1634.22 381.722   3
   2   4   7 1975.81 238.212   3
  -2  -4  -7 1107.15 235.373   3
   3   4   7 1812.53 449.063   2
  -3   4  -7 1722.32 428.955   3
   3   4   7 1962.63 296.472   3
  -3  -4  -7 1437.89 336.210   3
   4   4   7 3095.59 402.064   3
  -4   4  -7 2265.00 426.514   3
  -4  -4  -7 2745.36 489.308   3
  -5   4  -7 8152.75 811.184   3
  -5  -4  -7 7832.07 862.783   3
  -6   4  -7 6741.58 785.842   3
  -6  -4  -7 6768.04 835.497   3
  -7   4  -7 7315.75 846.455   3
  -7  -4  -7 7737.67 1008.40   3
  -8   4  -7 4980.02 740.103   3
  -8  -4  -7 4944.04 823.446   3
  -9   4  -7 4355.14 737.963   3
  -9  -4  -7 3884.93 791.561   3
 -10   4  -7 15351.5 1368.46   3
 -10  -4  -7 18368.6 1609.70   3
 -11  -4  -7 15684.8 1552.23   3
 -11   4  -7 14637.8 1417.41   3
 -12  -4  -7 21085.2 1799.88   3
 -12   4  -7 20190.1 1726.45   3
 -13   4  -7 8651.06 1199.23   3
 -13  -4  -7 8859.14 1231.34   3
 -14   4  -7 7166.66 1188.16   3
 -14  -4  -7 8621.69 1249.09   3
 -15   4  -7 7415.87 1260.87   3
 -15  -4  -7 6843.19 1212.02   3
 -16   4  -7 3151.38 899.870   3
 -16  -4  -7 3588.98 910.480   3
 -17  -4  -7 3627.41 1008.45   3
 -18   5   7 1531.20 830.455   2
  17   5  -7 1893.52 676.466   1
 -17   5   7 2011.70 840.005   2
 -16   5   7 939.720 705.964   2
 -15   5   7-270.243 458.867   2
 -14   5   7 56.8317 454.820   2
 -13   5   7 2887.98 838.610   2
 -12   5   7 6933.51 1092.32   2
 -11   5   7 7302.40 1070.81   2
 -10   5   7 7440.02 1036.64   2
  -9   5   7 4829.85 814.829   2
  -8   5   7 5647.35 822.665   2
  -7   5   7 23548.1 1596.30   2
   6  -5  -7 31954.9 1149.06   3
  -6   5   7 32752.9 1865.66   2
   5  -5  -7 7536.72 382.134   3
  -5   5   7 8014.79 910.869   2
  -4   5   7 17360.2 1311.64   2
  -3   5   7 3795.25 616.359   2
   2   5  -7 759.813 169.344   2
  -2   5   7 921.553 440.285   2
   1   5  -7 267.724 162.152   2
  -1   5   7-94.2411 289.766   2
   0   5   7 2088.63 517.075   2
  -1   5  -7 1256.66 411.782   3
   1   5   7 1282.77 435.490   2
   2   5   7-144.754 333.334   2
  -2   5  -7 377.119 286.981   3
   3   5   7 2781.03 537.195   2
   3   5   7 3319.24 339.258   3
  -3   5  -7 2579.38 501.592   3
  -3  -5  -7 3196.44 396.309   3
   4   5   7 6711.22 551.216   3
  -4   5  -7 7035.03 773.007   3
  -4  -5  -7 6524.88 626.619   3
  -5   5  -7 12666.3 1055.00   3
  -5  -5  -7 12869.9 980.043   3
  -6   5  -7 14767.4 1172.71   3
  -6  -5  -7 13781.0 1106.08   3
  -7   5  -7 11471.4 1068.52   3
  -7  -5  -7 11128.5 1070.70   3
  -8   5  -7 17047.8 1361.03   3
  -8  -5  -7 18152.4 1432.41   3
  -9   5  -7 19573.5 1501.08   3
  -9  -5  -7 18889.3 1556.65   3
 -10   5  -7 1343.86 532.831   3
 -10  -5  -7 1780.41 587.689   3
 -11   5  -7 2787.37 744.946   3
 -11  -5  -7 3813.61 826.351   3
 -12   5  -7 2240.28 713.046   3
 -12  -5  -7 799.683 535.171   3
 -13   5  -7 4438.20 913.277   3
 -13  -5  -7 5087.25 978.943   3
 -14   5  -7 1551.25 649.519   3
 -15   5  -7 173.331 498.258   3
 -17   6   7 11039.3 1647.17   2
 -16   6   7 9655.72 1471.80   2
 -15   6   7 14678.3 1836.53   2
 -14   6   7 22831.4 2119.32   2
 -13   6   7 12872.0 1588.79   2
 -12   6   7 7901.04 1223.58   2
 -11   6   7 2130.75 679.935   2
 -10   6   7 1501.65 723.809   2
  -9   6   7 830.280 491.126   2
  -8   6   7 2624.62 747.828   2
  -7   6   7 8228.42 1052.18   2
  -6   6   7 5826.13 926.528   2
  -5   6   7 36748.5 2026.97   2
  -4   6   7 75974.2 2914.37   2
  -3   6   7 78722.7 2909.14   2
   3   6  -7 77106.4 1493.56   2
   2   6  -7 115252. 2229.80   2
  -2   6   7 108493. 3505.65   2
   1   6  -7 114803. 2421.87   2
  -1   6   7 115037. 3559.96   2
   0   6   7 79776.2 2831.41   2
   0   6  -7 76347.5 2016.87   2
   1   6   7 61170.0 2454.11   2
  -1   6  -7 59161.1 2244.28   3
   2   6   7 77218.8 2829.65   2
  -2   6  -7 74874.9 2581.72   3
   3   6   7 57411.3 2386.87   2
  -3   6  -7 55080.9 2198.29   3
   4   6   7 42207.8 2062.30   2
  -4   6  -7 42670.3 1962.07   3
  -5   6  -7 38296.8 1886.58   3
  -6   6  -7 35191.8 1858.27   3
  -7   6  -7 18363.5 1396.90   3
  -8   6  -7 1590.36 512.346   3
  -9   6  -7-255.323 357.845   3
 -10   6  -7 543.898 415.692   3
 -11   6  -7 2786.49 676.891   3
 -12   6  -7 8903.43 1218.13   3
 -13   6  -7 5896.46 1126.87   3
 -14   6  -7 13141.0 1572.79   3
 -15   6  -7 20542.5 2052.61   3
 -15   7   7 19596.9 2141.13   2
 -14   7   7 20929.4 2090.45   2
 -13   7   7 32930.0 2565.08   2
 -12   7   7 39711.4 2704.64   2
 -11   7   7 54483.8 3063.20   2
 -10   7   7 57344.4 3037.74   2
  -9   7   7 62112.4 3085.07   2
  -8   7   7 59682.4 2919.98   2
  -7   7   7 47577.5 2533.17   2
  -6   7   7 40782.4 2297.33   2
  -5   7   7 48424.1 2463.00   2
  -4   7   7 31797.4 1948.97   2
  -3   7   7 14393.7 1264.76   2
   2   7  -7 25446.8 993.310   2
  -2   7   7 24172.7 1627.67   2
   1   7  -7 9082.86 654.156   2
  -1   7   7 11095.5 1133.57   2
   0   7  -7 722.085 272.809   2
   0   7  -7 1060.70 462.193   3
   0   7   7 230.179 345.858   2
  -1   7  -7 658.890 270.600   2
  -1   7  -7 299.680 397.703   3
   1   7   7 544.404 441.695   2
   2   7   7 17677.4 1422.28   2
  -2   7  -7 17802.5 1276.71   3
  -2   7  -7 19159.4 1150.37   2
   3   7   7 40425.1 2103.72   2
  -3   7  -7 41930.2 1976.01   3
   4   7   7 46931.6 2284.59   2
  -4   7  -7 46917.9 2156.45   3
  -5   7  -7 50864.9 2291.33   3
  -6   7  -7 48052.9 2280.12   3
  -7   7  -7 59475.0 2633.58   3
  -8   7  -7 63493.8 2814.68   3
  -9   7  -7 53723.6 2653.06   3
 -10   7  -7 81693.9 3443.67   3
 -11   7  -7 62739.0 3089.49   3
 -12   7  -7 54196.8 3003.16   3
 -13   7  -7 38222.1 2600.78   3
 -14   7  -7 27379.5 2308.83   3
 -13   8   7-486.114 682.176   2
 -12   8   7-133.784 641.014   2
 -11   8   7-825.207 593.720   2
 -10   8   7 396.712 524.636   2
  -9   8   7 1428.93 568.214   2
  -8   8   7 5489.72 920.239   2
  -7   8   7 14415.5 1472.61   2
  -6   8   7 19447.7 1656.13   2
  -5   8   7 25545.8 1872.61   2
  -4   8   7 26452.0 1859.56   2
  -3   8   7 31305.9 2000.27   2
  -2   8   7 36538.7 2138.54   2
  -1   8   7 38247.5 2176.92   2
   0   8   7 67211.8 2872.86   2
   0   8  -7 62977.7 2559.72   3
   0   8  -7 66682.9 2092.31   2
   1   8   7 71985.2 3002.93   2
  -1   8  -7 72767.9 2732.33   3
  -1   8  -7 75485.7 2372.26   2
   2   8   7 65226.9 2866.68   2
  -2   8  -7 66293.1 2609.40   3
  -2   8  -7 67192.8 2325.71   2
   3   8   7 48910.9 2441.34   2
  -3   8  -7 48255.4 2231.90   3
  -3   8  -7 49334.6 2091.92   2
   4   8   7 41724.6 2269.11   2
  -4   8  -7 39367.0 2060.07   3
  -4   8  -7 40695.5 2013.87   2
  -5   8  -7 27238.4 1725.39   3
  -5   8  -7 25136.1 1666.20   2
  -6   8  -7 14929.5 1325.13   3
  -7   8  -7 12704.4 1254.29   3
  -8   8  -7 15958.5 1454.64   3
  -9   8  -7 9989.30 1222.26   3
 -10   8  -7 3712.79 809.108   3
 -11   8  -7 176.274 610.096   3
 -12   8  -7 528.740 593.463   3
 -13   8  -7 1427.29 724.032   3
 -11   9   7 1589.86 747.582   2
 -10   9   7 769.169 605.854   2
  -9   9   7 1852.91 801.659   2
  -8   9   7 1207.61 698.215   2
  -7   9   7 1653.00 736.479   2
  -6   9   7 3015.22 783.664   2
  -5   9   7 4613.77 951.903   2
  -4   9   7 3209.78 759.373   2
  -3   9   7 3580.80 773.783   2
  -2   9   7 830.411 491.801   2
   1   9  -7 1125.43 498.495   3
  -1   9   7 1056.45 467.292   2
   0   9  -7 1081.29 464.356   3
   0   9   7 547.182 478.437   2
  -1   9  -7 44.8574 341.592   3
   1   9   7 1158.49 543.234   2
   2   9   7-305.917 429.143   2
  -2   9  -7 942.242 436.360   3
   3   9   7 677.779 392.244   2
  -3   9  -7 352.682 272.994   2
  -3   9  -7 593.672 438.326   3
   4   9   7 286.442 455.674   2
  -4   9  -7 709.597 351.784   2
  -4   9  -7 757.478 454.882   3
  -5   9  -7-21.5394 298.283   2
  -5   9  -7 144.800 356.746   3
  -6   9  -7 2183.59 604.887   2
  -6   9  -7 1847.78 579.748   3
  -7   9  -7 799.153 433.848   2
  -7   9  -7 1416.02 557.009   3
  -8   9  -7 1243.85 591.739   2
  -8   9  -7 799.679 509.543   3
  -9   9  -7 296.156 496.411   2
  -9   9  -7 2389.49 720.754   3
 -10   9  -7 937.230 522.394   3
 -10   9  -7 391.577 510.166   2
 -11   9  -7-1150.52 692.977   3
 -11   9  -7-976.267 854.998   2
 -12   9  -7 3179.89 961.879   3
  -8  10   7 4090.96 972.300   2
  -7  10   7 7062.53 1161.80   2
  -6  10   7 1867.92 671.715   2
  -5  10   7 4576.17 945.802   2
  -4  10   7 3769.92 846.082   2
  -3  10   7 164.475 438.342   2
  -2  10   7 93.9545 495.888   2
   2  10  -7-40.5489 396.957   3
   1  10  -7 144.226 401.465   3
  -1  10   7 378.207 499.784   2
   0  10  -7 944.845 504.739   3
   0  10   7 760.798 515.870   2
  -1  10  -7 455.970 420.594   3
   1  10   7 1311.85 647.698   2
   2  10   7 1006.34 473.671   2
  -2  10  -7 1230.36 507.780   3
   3  10   7 318.319 460.517   2
  -3  10  -7 67.0142 362.637   3
   4  10   7 411.988 411.214   2
  -4  10  -7 378.395 445.210   3
  -5  10  -7 984.941 538.345   3
  -6  10  -7 184.156 360.405   2
  -6  10  -7 1011.06 514.079   3
  -7  10  -7-340.463 416.195   2
  -7  10  -7 945.193 600.613   3
  -8  10  -7 361.765 522.186   2
  -8  10  -7 922.661 557.054   3
  -9  10  -7 2391.39 797.646   2
  -9  10  -7 1346.54 619.028   3
 -10  10  -7 1664.70 772.480   2
 -10  10  -7 1068.68 541.009   3
  -4  11   7 2517.72 762.572   2
   3  11  -7 1099.74 506.170   3
  -3  11   7 428.255 534.272   2
   2  11  -7 2971.46 737.623   3
  -2  11   7 3744.54 886.667   2
   1  11  -7 1549.66 611.399   3
  -1  11   7 1074.92 577.076   2
   0  11  -7 1998.65 666.533   3
   0  11   7 853.969 486.871   2
   1  11   7 1242.04 564.813   2
  -1  11  -7 139.046 415.639   3
   2  11   7 928.087 524.283   2
  -2  11  -7-873.152 498.664   3
   3  11   7 483.099 575.098   2
  -3  11  -7-113.679 415.945   3
   4  11   7 716.699 581.251   2
  -4  11  -7-222.358 441.703   3
  -5  11  -7 37.1468 500.168   3
  -6  11  -7-27.9894 438.261   3
  19   0  -8 9960.00 1615.44   1
  18   0  -8 2892.84 939.197   1
  17   0  -8 6242.04 1242.32   1
  16   0  -8 2069.11 729.453   1
  15   0  -8-435.223 688.470   1
 -15   0   8 433.339 464.599   2
 -14   0   8 2021.88 636.915   2
  14   0  -8 908.849 513.014   1
 -13   0   8 10747.4 1196.93   2
  13   0  -8 9492.31 1352.27   1
  12   0  -8 27707.4 2213.32   1
 -12   0   8 26458.5 1748.48   2
  11   0  -8 35993.7 2476.12   1
 -11   0   8 35105.3 1889.24   2
  10   0  -8 55490.8 3008.35   1
 -10   0   8 57437.0 2276.03   2
   9   0  -8 76752.7 3512.35   1
  -9   0   8 78165.9 2515.49   2
   8   0  -8 156099. 5001.91   1
  -8   0   8 151377. 3539.01   2
   7   0  -8 124825. 4297.73   1
  -7   0   8 122848. 2973.99   2
   6   0  -8 226004. 5911.32   1
  -6   0   8 217850. 4221.90   2
   5   0  -8 288233. 6649.67   1
   5   0  -8 282739. 4823.42   2
  -5   0   8 290459. 5014.68   2
  -4   0   8 226383. 4184.07   2
   4   0  -8 231592. 5606.51   1
   4   0  -8 231898. 4140.64   2
  -3   0   8 225920. 4123.89   2
   3   0  -8 213642. 5203.17   1
   3   0  -8 219002. 3988.69   2
  -2   0   8 193847. 3739.71   2
   2   0  -8 178113. 4489.72   1
   2   0  -8 188718. 3590.03   2
   1   0  -8 175328. 4174.44   1
   0   0  -8 224076. 4651.33   1
   0   0  -8 230499. 4234.92   3
  -1   0  -8 248881. 4702.40   1
  -1   0  -8 250893. 4556.03   3
  -2   0  -8 138929. 3105.62   3
  -2   0  -8 140139. 2894.55   1
  -3   0  -8 73416.5 2188.17   3
  -3   0  -8 77207.5 1682.63   1
  -4   0  -8 35021.2 1517.48   3
  -5   0  -8 21394.0 1255.15   3
  -6   0  -8 2951.13 536.294   3
  -7   0  -8-36.4401 338.729   3
  -8   0  -8 16001.9 1316.25   3
  -9   0  -8 437.079 422.663   3
 -10   0  -8 871.226 507.454   3
 -11   0  -8 348.953 417.822   3
 -12   0  -8 5361.95 985.682   3
 -13   0  -8 13200.2 1535.54   3
 -14   0  -8 8617.64 1369.81   3
 -15   0  -8 3961.32 975.431   3
 -16   0  -8 1351.63 673.911   3
 -17   0  -8 1884.03 815.579   3
  19   1  -8 13178.3 1811.53   1
  18   1  -8 18301.1 2078.23   1
  18  -1  -8 19794.5 2129.06   1
  17   1  -8 20586.8 2137.85   1
  17  -1  -8 23061.1 2259.91   1
  16   1  -8 31593.1 2587.69   1
 -16   1   8 30644.3 2335.25   2
  16  -1  -8 34714.1 2713.86   1
  15   1  -8 34907.6 2653.48   1
 -15   1   8 33227.6 2329.74   2
  15  -1  -8 35605.5 2722.69   1
  14   1  -8 31001.3 2488.21   1
  14  -1  -8 37600.6 2726.03   1
 -14   1   8 32014.7 2216.46   2
  13   1  -8 44637.5 2857.93   1
  13  -1  -8 42298.2 2852.70   1
 -13  -1   8 41554.8 2229.77   2
 -13   1   8 38900.8 2371.43   2
  12   1  -8 59975.0 3302.55   1
  12  -1  -8 60253.3 3376.97   1
 -12  -1   8 60749.2 2522.61   2
 -12   1   8 59670.8 2779.46   2
  11   1  -8 35665.0 2461.77   1
  11  -1  -8 37485.4 2595.77   1
 -11  -1   8 34958.2 1758.73   2
 -11   1   8 37188.5 2079.49   2
  10   1  -8 33799.5 2307.46   1
  10  -1  -8 35942.2 2492.20   1
 -10   1   8 35701.4 1929.00   2
 -10  -1   8 37749.9 1664.90   2
   9   1  -8 26238.3 1979.83   1
   9  -1  -8 27134.2 2100.11   1
  -9   1   8 26131.2 1547.46   2
  -9  -1   8 28179.6 1293.12   2
   8   1  -8 20876.1 1708.60   1
   8  -1  -8 21430.9 1789.02   1
  -8   1   8 19005.9 1245.97   2
  -8  -1   8 20000.7 1046.87   2
   7  -1  -8 11460.5 1344.05   1
  -7   1   8 10428.9 963.361   2
  -7  -1   8 11143.2 789.520   2
  -6   1   8 749.362 434.683   2
  -6  -1   8 538.748 372.126   2
   6  -1  -8 1316.90 580.162   1
  -5   1   8 994.599 480.186   2
   5  -1  -8 1829.72 600.042   1
  -5  -1   8 1407.18 273.931   2
  -4  -1   8 14601.4 763.613   2
   4  -1  -8 14181.4 1260.90   1
   4   1  -8 15138.0 720.445   2
  -4   1   8 15291.2 943.731   2
  -3   1   8 49299.3 1718.02   2
   3  -1  -8 49410.4 2220.77   1
   3   1  -8 50330.5 1400.39   2
   2  -1  -8 17726.6 1213.79   1
  -2   1   8 18244.6 1029.45   2
   2   1  -8 18700.0 824.787   2
  -1   1   8 37458.6 1499.48   2
   1   1  -8 35192.3 1227.11   2
   1  -1  -8 35974.1 1260.12   3
   1  -1  -8 35679.9 1565.07   1
   0   1  -8 62120.1 1829.09   2
   0  -1  -8 59103.3 1709.62   3
   0   1  -8 60383.1 1906.12   3
   0  -1  -8 62361.1 1897.40   1
  -1  -1  -8 75520.4 1999.57   3
  -1   1  -8 75693.0 2169.21   3
  -1  -1  -8 73774.7 1827.38   1
  -2  -1  -8 61751.5 1849.96   3
  -2   1  -8 59218.5 1940.17   3
  -3  -1  -8 111162. 2767.31   3
  -3   1  -8 108374. 2803.45   3
  -4  -1  -8 89019.0 2572.44   3
  -4   1  -8 82765.8 2498.48   3
  -5  -1  -8 102152. 2929.06   3
  -5   1  -8 93256.6 2778.39   3
  -6  -1  -8 50316.9 2127.01   3
  -6   1  -8 51580.4 2067.04   3
  -6   1  -8 49636.5 1174.86   1
  -7   1  -8 45047.9 2059.16   3
  -7   1  -8 47257.0 1227.21   1
  -7  -1  -8 49085.6 2235.05   3
  -8   1  -8 28203.0 1702.67   3
  -8  -1  -8 29009.1 1791.79   3
  -9  -1  -8 30053.6 1941.31   3
  -9   1  -8 30299.6 1863.14   3
 -10  -1  -8 1940.18 634.550   3
 -10   1  -8 2128.60 695.598   3
 -11  -1  -8 2328.29 769.365   3
 -11   1  -8 4602.69 896.230   3
 -12  -1  -8 1104.20 538.678   3
 -12   1  -8 1448.99 577.283   3
 -13   1  -8-186.754 449.620   3
 -13  -1  -8-1097.76 800.824   3
 -14   1  -8-111.494 500.965   3
 -14  -1  -8-526.613 662.412   3
 -15   1  -8 74.9621 667.043   3
 -15  -1  -8 846.115 552.851   3
 -16  -1  -8 2467.19 877.187   3
 -16   1  -8 2018.59 786.896   3
 -17  -1  -8 2046.44 836.168   3
 -17   1  -8 1942.15 789.926   3
 -18   2   8-320.563 559.889   2
  18   2  -8 269.525 604.406   1
 -17   2   8 4671.42 1052.46   2
  17  -2  -8 4806.37 1206.55   1
  17   2  -8 5645.72 1260.84   1
  16  -2  -8 6477.52 1320.35   1
 -16   2   8 6645.87 1166.98   2
  16   2  -8 5558.23 1200.31   1
 -15   2   8 5619.05 1075.33   2
  15   2  -8 6193.42 1185.18   1
  15  -2  -8 5892.60 1270.62   1
  14   2  -8 5791.54 1113.13   1
 -14   2   8 6253.58 1095.15   2
  14  -2  -8 8489.44 1379.65   1
  13   2  -8 7460.69 1203.35   1
 -13   2   8 8668.73 1153.03   2
  13  -2  -8 11015.8 1549.83   1
  12   2  -8 15384.6 1633.80   1
 -12   2   8 15780.7 1505.64   2
  12  -2  -8 17987.0 1842.55   1
  11   2  -8 25551.2 1996.27   1
 -11   2   8 25712.7 1802.42   2
 -11  -2   8 24546.2 1240.91   2
  11  -2  -8 25100.2 2106.10   1
  10  -2  -8 49448.3 2845.25   1
 -10   2   8 45286.8 2267.48   2
 -10  -2   8 45537.9 1535.27   2
   9  -2  -8 33430.2 2288.34   1
  -9   2   8 33762.5 1838.98   2
  -9  -2   8 34385.9 1174.11   2
   8  -2  -8 21985.9 1810.86   1
  -8   2   8 23446.8 1468.53   2
  -8  -2   8 23917.6 852.481   2
  -7  -2   8 19648.6 699.121   2
   7  -2  -8 21055.9 1679.27   1
  -7   2   8 20911.1 1303.93   2
   6  -2  -8 16935.9 1436.00   1
  -6   2   8 17648.2 1174.80   2
   5  -2  -8 9607.64 1034.97   1
  -5   2   8 11062.5 917.159   2
   4  -2  -8 1334.42 492.325   1
   4   2  -8 1487.84 199.737   2
  -4   2   8 842.988 339.148   2
   3   2  -8 1533.34 236.931   2
   3  -2  -8 1164.08 413.903   1
  -3   2   8 1102.30 329.905   2
   2  -2  -8 3836.57 557.759   1
  -2   2   8 5144.89 631.616   2
   2   2  -8 4570.86 393.990   2
  -1   2   8 3818.29 562.506   2
   1   2  -8 4393.56 415.007   2
   1  -2  -8 4413.75 418.539   3
   0   2   8 19588.9 1134.25   2
   0   2  -8 17660.3 948.558   2
   0  -2  -8 17468.3 825.373   3
  -1  -2  -8 17851.0 891.143   3
  -1   2  -8 16968.4 1039.92   3
  -2  -2  -8 68385.2 1961.21   3
  -2   2  -8 66402.7 2143.59   3
  -3  -2  -8 72761.6 2179.51   3
  -3   2  -8 70790.9 2267.99   3
  -4  -2  -8 82389.5 2487.68   3
  -4   2  -8 78488.4 2450.67   3
  -5   2  -8 83138.8 2636.92   3
  -5  -2  -8 90567.4 2812.07   3
  -6   2  -8 59047.7 2245.66   3
  -6  -2  -8 61610.7 2428.81   3
  -7   2  -8 98804.3 3121.50   3
  -7  -2  -8 99794.3 3357.60   3
  -8   2  -8 158242. 4287.14   3
  -8  -2  -8 155815. 4634.75   3
  -9   2  -8 113932. 3695.33   3
  -9  -2  -8 110019. 4007.30   3
 -10  -2  -8 89847.9 3700.12   3
 -10   2  -8 87416.4 3336.01   3
 -11  -2  -8 75942.3 3498.86   3
 -11   2  -8 78032.3 3321.50   3
 -12  -2  -8 34470.6 2378.07   3
 -12   2  -8 36609.2 2353.91   3
 -13  -2  -8 18938.1 1837.32   3
 -13   2  -8 19337.1 1789.20   3
 -14  -2  -8 16236.7 1748.13   3
 -14   2  -8 14366.7 1662.30   3
 -15  -2  -8 19017.5 1923.51   3
 -15   2  -8 18790.3 1974.97   3
 -16   2  -8 9861.58 1492.47   3
 -16  -2  -8 14391.7 1736.11   3
 -17  -2  -8 5603.93 1215.70   3
 -19   3   8 574.403 620.983   2
 -18   3   8-289.457 532.161   2
  18   3  -8-95.3385 654.833   1
 -17   3   8 175.023 528.629   2
  17   3  -8-12.2716 525.693   1
  16   3  -8-387.648 581.806   1
 -16   3   8 493.248 515.221   2
  15   3  -8 802.907 619.409   1
 -15   3   8 2140.16 685.913   2
  14   3  -8 448.229 449.837   1
  14  -3  -8-1239.76 825.090   1
 -14   3   8-359.841 496.226   2
  13  -3  -8 1769.27 723.637   1
 -13   3   8 898.719 455.196   2
 -12   3   8 7946.73 1114.04   2
  12  -3  -8 7949.53 1310.38   1
  11  -3  -8 7861.60 1238.50   1
 -11   3   8 6399.04 927.328   2
 -10   3   8 24544.8 1737.62   2
  10  -3  -8 24014.6 2082.21   1
  -9   3   8 30474.8 1860.69   2
   9  -3  -8 31319.9 2265.69   1
  -8   3   8 41875.4 2101.00   2
   8  -3  -8 46515.2 2643.19   1
  -7   3   8 57516.6 2402.21   2
   7  -3  -8 58954.5 2866.77   1
   6  -3  -8 58109.3 1860.62   3
  -6   3   8 63357.7 2412.85   2
   5  -3  -8 56695.1 1660.06   3
  -5   3   8 56996.1 2252.83   2
  -4   3   8 73195.3 2532.53   2
   3   3  -8 60841.9 1187.40   2
  -3   3   8 63102.8 2285.82   2
   2   3  -8 134500. 2370.80   2
   2  -3  -8 135199. 2487.77   3
  -2   3   8 138812. 3538.53   2
  -1   3   8 75731.5 2510.28   2
   1  -3  -8 81355.1 1772.28   3
   0   3   8 124354. 3363.50   2
   0  -3  -8 132235. 2585.29   3
   0   3   8 129689. 3925.08   1
  -1  -3  -8 98367.2 2287.45   3
   1   3   8 97367.1 2910.45   2
  -1   3  -8 98069.4 2780.17   3
   1   3   8 100227. 3169.99   1
  -2  -3  -8 105498. 2574.91   3
  -2   3  -8 106330. 2907.41   3
   2   3   8 105086. 3070.83   1
  -3   3  -8 48720.9 1926.46   3
   3   3   8 48003.5 1557.24   3
   3   3   8 53110.1 1878.23   1
  -3  -3  -8 52277.3 1847.20   3
  -4   3  -8 17040.7 1150.45   3
   4   3   8 17286.5 885.736   1
  -4  -3  -8 17068.2 1132.62   3
  -5  -3  -8 4001.80 631.681   3
  -5   3  -8 5720.56 750.953   3
  -6  -3  -8 3884.39 695.560   3
  -6   3  -8 4928.65 710.343   3
  -7  -3  -8 3128.42 621.536   3
  -7   3  -8 3128.04 604.795   3
  -8  -3  -8 1431.86 493.852   3
  -8   3  -8 1393.34 466.104   3
  -9   3  -8 15436.1 1316.80   3
  -9  -3  -8 12415.7 1306.55   3
 -10   3  -8 2105.24 576.513   3
 -10  -3  -8 2583.25 678.727   3
 -11  -3  -8 18448.2 1725.68   3
 -11   3  -8 18441.0 1617.16   3
 -12  -3  -8 28995.6 2183.51   3
 -12   3  -8 31083.6 2133.42   3
 -13  -3  -8 32949.8 2417.68   3
 -13   3  -8 31581.7 2280.76   3
 -14  -3  -8 25430.5 2163.58   3
 -14   3  -8 24701.5 2109.04   3
 -15  -3  -8 32540.4 2528.83   3
 -15   3  -8 35637.3 2667.69   3
 -16  -3  -8 35504.2 2651.76   3
 -16   3  -8 33012.7 2664.35   3
 -17  -3  -8 46150.3 3135.78   3
 -19   4   8-125.869 686.634   2
 -18   4   8 1237.82 559.780   2
  17   4  -8 837.704 629.670   1
 -17   4   8 44.4623 637.899   2
  16   4  -8 1545.77 793.912   1
 -16   4   8 1062.97 679.169   2
  15   4  -8 153.177 475.524   1
 -15   4   8 597.499 596.214   2
 -14   4   8 497.010 566.069   2
 -13   4   8 1160.24 767.422   2
 -12   4   8 926.912 627.750   2
 -11   4   8 1295.64 565.111   2
 -10   4   8 896.642 486.350   2
  -9   4   8 36.9717 343.366   2
  -8   4   8 978.660 420.203   2
   7  -4  -8 4369.65 597.476   3
  -7   4   8 4143.63 676.334   2
   6  -4  -8 16030.5 1018.47   3
  -6   4   8 18439.1 1342.95   2
   5  -4  -8 9302.96 672.192   3
  -5   4   8 10178.3 1001.98   2
  -4   4   8 6960.97 831.613   2
   4  -4  -8 5212.85 420.079   3
   3  -4  -8 1302.37 167.961   3
  -3   4   8 1634.26 466.163   2
   3  -4  -8 1368.77 188.176   3
   2   4  -8 2476.92 258.154   2
   2  -4  -8 2045.29 206.835   3
  -2   4   8 2091.24 456.782   2
   1  -4  -8 34.0967 77.8703   3
  -1   4   8 414.326 367.044   2
   0  -4  -8 1230.33 232.607   3
   0   4   8 734.929 329.270   2
   1   4   8 4739.57 668.652   2
  -1   4  -8 4819.51 614.129   3
  -1  -4  -8 4255.90 452.551   3
   2   4   8 1104.03 342.146   2
  -2  -4  -8 1283.11 295.521   3
  -2   4  -8 1695.40 389.233   3
   2   4   8 1357.79 339.074   1
  -3   4  -8 7914.38 801.922   3
   3   4   8 7946.31 578.447   3
   3   4   8 8687.10 757.666   1
  -3  -4  -8 7997.97 775.286   3
  -4   4  -8 12423.8 1003.26   3
   4   4   8 12930.6 862.539   1
  -4  -4  -8 12093.7 1012.80   3
  -5   4  -8 22285.9 1383.51   3
  -5  -4  -8 21226.8 1451.89   3
   5   4   8 21876.6 1066.30   1
  -6   4  -8 32737.1 1733.58   3
  -6  -4  -8 33061.2 1914.80   3
  -7   4  -8 11277.7 1068.08   3
  -7  -4  -8 12616.4 1230.28   3
  -8   4  -8 17536.2 1374.76   3
  -8  -4  -8 19640.4 1569.90   3
  -9   4  -8 23358.3 1666.00   3
  -9  -4  -8 26444.4 1894.55   3
 -10   4  -8 20738.7 1599.39   3
 -10  -4  -8 21733.7 1776.07   3
 -11   4  -8 24682.6 1832.71   3
 -11  -4  -8 26324.0 1994.24   3
 -12  -4  -8 23022.8 1917.75   3
 -12   4  -8 21877.0 1812.66   3
 -13  -4  -8 22242.0 1956.07   3
 -13   4  -8 20440.4 1851.42   3
 -14  -4  -8 23185.8 2050.11   3
 -14   4  -8 23411.0 2068.87   3
 -15   4  -8 6300.29 1191.20   3
 -15  -4  -8 7710.33 1258.48   3
 -16  -4  -8 3922.26 1007.34   3
 -17  -4  -8 2996.89 935.481   3
 -18   5   8 1131.71 642.047   2
  17   5  -8 1605.70 758.147   1
 -17   5   8 3306.79 974.325   2
 -16   5   8 9824.04 1494.75   2
 -15   5   8 13680.3 1701.57   2
 -14   5   8 12288.8 1543.69   2
 -13   5   8 16481.3 1730.02   2
 -12   5   8 16198.9 1669.13   2
 -11   5   8 20886.2 1774.14   2
 -10   5   8 31286.5 2081.41   2
  -9   5   8 33384.1 2100.39   2
  -8   5   8 30562.4 1936.46   2
  -7   5   8 37042.6 2091.48   2
  -6   5   8 33961.5 1959.42   2
   5  -5  -8 16022.2 612.161   3
  -5   5   8 20209.6 1449.73   2
  -4   5   8 7217.95 896.263   2
  -3   5   8 5597.37 762.583   2
   2   5  -8 6347.97 381.022   2
  -2   5   8 7419.71 860.678   2
  -1   5   8 2624.17 536.931   2
   0   5   8 2919.27 591.673   2
   1   5   8 758.985 434.636   2
  -1   5  -8 479.535 354.428   3
   2   5   8 2025.38 522.060   2
  -2   5  -8 1818.72 520.794   3
  -2  -5  -8 1452.21 262.523   3
   3   5   8 2790.10 588.445   2
  -3   5  -8 3849.69 639.152   3
  -3  -5  -8 3040.79 419.943   3
  -4   5  -8 10187.9 957.867   3
  -4  -5  -8 9555.91 823.779   3
  -5   5  -8 12425.0 1108.99   3
  -5  -5  -8 11854.0 1012.99   3
  -6   5  -8 17016.1 1306.14   3
  -6  -5  -8 15882.1 1248.92   3
  -7   5  -8 2362.68 585.158   3
  -7  -5  -8 2414.70 591.376   3
  -8   5  -8 7558.64 936.556   3
  -8  -5  -8 7415.56 974.124   3
  -9   5  -8 28698.9 1875.77   3
  -9  -5  -8 32587.8 2068.87   3
 -10   5  -8 12268.9 1287.29   3
 -10  -5  -8 13319.6 1355.41   3
 -11   5  -8 10024.0 1193.91   3
 -11  -5  -8 12897.0 1420.21   3
 -12  -5  -8 19457.5 1788.00   3
 -12   5  -8 17333.0 1618.15   3
 -13   5  -8 7705.52 1207.02   3
 -13  -5  -8 8452.91 1256.14   3
 -14   5  -8 6523.68 1147.63   3
 -14  -5  -8 7664.09 1216.47   3
 -15   5  -8 2883.62 906.423   3
 -15  -5  -8 3775.23 1013.24   3
 -16   6   8 2526.69 924.121   2
 -15   6   8 832.525 617.336   2
 -14   6   8 1797.96 854.778   2
 -13   6   8 1871.22 747.265   2
 -12   6   8 48.4766 497.130   2
 -11   6   8 185.202 464.431   2
 -10   6   8 1433.44 650.296   2
  -9   6   8 4851.85 929.568   2
  -8   6   8 9710.74 1183.23   2
  -7   6   8 9203.94 1121.30   2
  -6   6   8 2655.03 670.118   2
  -5   6   8 11253.8 1172.32   2
  -4   6   8 37282.3 2066.50   2
  -3   6   8 42445.3 2182.71   2
   2   6  -8 48272.3 1236.48   2
  -2   6   8 47086.1 2264.39   2
  -1   6   8 47624.8 2279.93   2
   1   6  -8 50633.9 1456.15   2
   0   6   8 48299.3 2278.56   2
   0   6  -8 46208.2 2059.62   3
   0   6  -8 49328.1 1582.11   2
   1   6   8 33544.5 1886.83   2
  -1   6  -8 32282.1 1718.40   3
   2   6   8 35546.7 1944.25   2
  -2   6  -8 37206.8 1829.19   3
   3   6   8 47797.0 2252.33   2
  -3   6  -8 43317.2 2026.30   3
  -4   6  -8 42430.7 2028.50   3
  -5   6  -8 44714.6 2128.87   3
  -6   6  -8 37998.8 2017.80   3
  -7   6  -8 21016.2 1527.52   3
  -8   6  -8 23426.8 1692.70   3
  -9   6  -8 15187.6 1405.51   3
 -10   6  -8 5735.02 956.038   3
 -11   6  -8 10216.2 1265.86   3
 -12   6  -8 6392.16 1109.28   3
 -13   6  -8 3732.12 957.879   3
 -14   6  -8 5268.55 1088.76   3
 -15   7   8 637.068 682.984   2
 -14   7   8-313.312 561.804   2
 -13   7   8-742.496 667.190   2
 -12   7   8 1503.59 674.793   2
 -11   7   8 2021.07 689.524   2
 -10   7   8 2993.75 858.765   2
  -9   7   8 1515.83 671.979   2
  -8   7   8 401.577 492.348   2
  -7   7   8 1435.88 559.196   2
  -6   7   8 2484.48 691.791   2
  -5   7   8 3145.43 756.757   2
  -4   7   8 10517.0 1183.39   2
  -3   7   8 7053.94 980.407   2
  -2   7   8 3936.12 759.006   2
  -1   7   8 712.041 466.610   2
   0   7  -8 6281.32 821.088   3
   0   7  -8 5831.44 567.723   2
   0   7   8 5639.20 831.637   2
  -1   7  -8 5045.65 572.409   2
  -1   7  -8 4495.24 657.382   3
   1   7   8 5394.52 845.779   2
   2   7   8 4556.04 761.945   2
  -2   7  -8 4594.91 723.544   3
  -2   7  -8 3616.86 519.327   2
   3   7   8 3537.03 638.408   2
  -3   7  -8 4080.59 676.946   3
   4   7   8 2416.23 599.450   2
  -4   7  -8 3457.79 658.675   3
  -5   7  -8 2876.10 669.898   3
  -6   7  -8 1134.55 555.708   3
  -7   7  -8 1323.47 549.279   3
  -8   7  -8 150.622 380.440   3
  -9   7  -8 2029.64 674.317   3
 -10   7  -8 74.2164 438.621   3
 -11   7  -8-827.425 659.186   3
 -12   7  -8 1459.53 674.805   3
 -13   7  -8 170.011 583.600   3
 -13   8   8-799.096 732.973   2
 -12   8   8 94.1733 609.887   2
 -11   8   8 1072.45 617.012   2
 -10   8   8 1824.95 810.724   2
  -9   8   8 3350.84 845.180   2
  -8   8   8 5859.26 1042.30   2
  -7   8   8 4635.83 956.135   2
  -6   8   8 6451.06 1029.90   2
  -5   8   8 5805.54 976.924   2
  -4   8   8 10285.5 1250.41   2
  -3   8   8 10583.2 1214.68   2
  -2   8   8 10507.6 1206.47   2
   1   8  -8 7425.00 937.613   3
  -1   8   8 8266.97 1062.89   2
   0   8  -8 4297.97 729.247   3
   0   8   8 5387.30 861.737   2
  -1   8  -8 7204.39 911.410   3
   1   8   8 6518.20 941.569   2
   2   8   8 1801.62 544.048   2
  -2   8  -8 2423.07 468.845   2
  -2   8  -8 2478.04 596.255   3
   3   8   8 942.782 475.804   2
  -3   8  -8 1071.58 412.675   2
  -3   8  -8 1438.67 497.047   3
  -4   8  -8 2342.63 521.952   2
   4   8   8 2585.09 711.672   2
  -4   8  -8 2302.86 606.004   3
  -5   8  -8 3889.23 734.251   3
  -5   8  -8 3887.92 721.954   2
  -6   8  -8 2121.84 600.044   3
  -7   8  -8 230.077 410.041   3
  -8   8  -8 823.628 501.941   3
  -9   8  -8 569.805 398.572   3
 -10   8  -8 814.648 461.202   3
 -11   8  -8-183.582 560.538   3
 -12   8  -8 458.001 430.325   3
 -10   9   8 4771.65 1058.24   2
  -9   9   8 1873.19 791.178   2
  -8   9   8 949.200 622.772   2
  -7   9   8 36.9738 519.232   2
  -6   9   8 938.573 622.762   2
  -5   9   8 480.228 430.009   2
  -4   9   8 160.662 522.814   2
  -3   9   8-34.1347 456.274   2
  -2   9   8 1709.21 626.280   2
   1   9  -8 5490.45 848.300   3
  -1   9   8 6128.11 972.678   2
   0   9  -8 2091.05 530.935   3
   0   9   8 3061.61 775.292   2
  -1   9  -8 4527.59 756.925   3
   1   9   8 6144.40 998.817   2
   2   9   8 3507.86 789.219   2
  -2   9  -8 2400.32 600.268   3
   3   9   8 4841.77 877.759   2
  -3   9  -8 4257.18 765.900   3
   4   9   8 3740.63 794.550   2
  -4   9  -8 3361.44 697.142   3
  -5   9  -8 1609.04 529.759   2
  -5   9  -8 1601.27 560.671   3
  -6   9  -8 4821.43 864.583   2
  -6   9  -8 4450.17 792.947   3
  -7   9  -8 7375.37 1116.60   2
  -7   9  -8 5971.00 955.228   3
  -8   9  -8 483.667 499.667   2
  -8   9  -8 234.819 384.461   3
  -9   9  -8 1514.01 622.442   3
  -9   9  -8 1083.96 659.521   2
 -10   9  -8 227.845 547.109   3
 -11   9  -8-419.071 619.363   3
  -7  10   8 9155.95 1322.22   2
  -6  10   8 9534.44 1320.95   2
  -5  10   8 6745.51 1126.50   2
  -4  10   8 4692.84 962.227   2
  -3  10   8 1518.58 624.340   2
   2  10  -8 1065.08 559.437   3
  -2  10   8 394.140 451.934   2
   1  10  -8 368.707 379.719   3
  -1  10   8 115.786 499.773   2
   0  10  -8-160.122 396.676   3
   0  10   8 1059.53 615.979   2
   1  10   8 124.312 440.281   2
  -1  10  -8-242.948 368.562   3
   2  10   8 841.055 582.712   2
  -2  10  -8 1096.34 571.616   3
   3  10   8 762.422 478.871   2
  -3  10  -8 1107.09 516.722   3
   4  10   8 3055.16 854.735   2
  -4  10  -8 3852.42 773.803   3
  -5  10  -8 5832.38 1006.68   3
  -6  10  -8 4704.20 895.814   3
  -7  10  -8 4074.82 865.247   3
  -8  10  -8 4397.52 936.356   3
  -9  10  -8 3729.94 1086.11   2
  -9  10  -8 2867.89 836.896   3
 -10  10  -8 2675.58 970.707   2
   3  11  -8 11895.4 1362.88   3
   2  11  -8 12369.5 1351.47   3
   1  11  -8 9115.99 1171.01   3
  -1  11   8 8448.75 1217.96   2
   0  11  -8 9525.72 1172.67   3
   0  11   8 8963.17 1263.42   2
   1  11   8 8060.36 1218.21   2
  -1  11  -8 7329.89 1040.69   3
   2  11   8 9557.84 1300.55   2
  -2  11  -8 6943.85 996.414   3
  -3  11  -8 8227.09 1086.90   3
  -4  11  -8 2267.76 679.104   3
  -5  11  -8 3681.84 823.830   3
  -6  11  -8 673.521 543.060   3
  18   0  -9-645.911 778.422   1
  17   0  -9-425.073 573.197   1
  16   0  -9-96.8082 663.411   1
  15   0  -9-920.168 761.012   1
  14   0  -9-477.014 646.441   1
 -13   0   9 107.804 304.531   2
  13   0  -9 1089.42 715.847   1
 -12   0   9 283.867 380.411   2
  12   0  -9-1378.60 760.774   1
 -11   0   9-36.1479 297.869   2
  11   0  -9 259.995 491.052   1
 -10   0   9-134.313 251.814   2
  10   0  -9 794.450 583.845   1
   9   0  -9 374.621 501.503   1
  -9   0   9 384.762 273.701   2
   8   0  -9-526.004 595.099   1
  -8   0   9 321.673 254.065   2
   7   0  -9-139.827 527.533   1
  -7   0   9 188.903 216.778   2
   6   0  -9-239.304 390.057   1
  -6   0   9 138.262 175.529   2
   5   0  -9-185.453 383.918   1
  -5   0   9 302.774 230.789   2
  -4   0   9-83.7207 177.501   2
   4   0  -9 99.1377 332.392   1
  -3   0   9 162.276 184.572   2
   3   0  -9-105.972 351.665   1
   2   0  -9-468.524 361.733   1
   1   0  -9 42.8680 219.974   1
   0   0  -9 23.3091 196.278   1
   0   0  -9 237.919 204.909   3
  -1   0  -9 261.724 176.068   1
  -1   0  -9 342.161 277.443   3
  -2   0  -9-36.8337 134.305   1
  -2   0  -9 203.090 231.263   3
  -3   0  -9 883.482 368.770   3
  -3   0  -9 62.7595 97.7585   1
  -4   0  -9 409.640 284.230   3
  -5   0  -9-42.2166 245.926   3
  -6   0  -9 263.569 320.848   3
  -7   0  -9 71.4331 338.726   3
  -8   0  -9-715.468 463.756   3
  -9   0  -9 861.304 595.328   3
 -10   0  -9 120.077 386.990   3
 -11   0  -9 11.1536 410.623   3
 -12   0  -9 73.6092 484.298   3
 -13   0  -9-536.563 506.963   3
 -14   0  -9 129.334 564.782   3
 -15   0  -9-1104.32 880.939   3
 -16   0  -9-793.576 705.101   3
  18   1  -9 3207.09 969.540   1
  18  -1  -9 5217.57 1234.23   1
  17  -1  -9 5169.39 1181.27   1
  17   1  -9 4353.48 1130.71   1
  16   1  -9 2149.79 858.201   1
  16  -1  -9 1796.15 883.005   1
 -15   1   9 926.625 625.454   2
  15  -1  -9 1535.66 817.555   1
  15   1  -9-106.507 645.703   1
 -14   1   9 1207.88 523.471   2
  14  -1  -9 1670.33 822.458   1
  14   1  -9 1561.38 666.468   1
 -13   1   9 5751.29 937.393   2
  13  -1  -9 4206.53 969.336   1
  13   1  -9 5366.10 1092.65   1
  12  -1  -9 13341.5 1617.48   1
  12   1  -9 15827.6 1746.55   1
 -12   1   9 15023.4 1394.73   2
 -12  -1   9 13779.6 1127.20   2
  11   1  -9 39414.8 2647.56   1
  11  -1  -9 40770.2 2751.67   1
 -11   1   9 40430.8 2169.52   2
 -11  -1   9 38701.1 1761.76   2
  10   1  -9 23880.0 1998.50   1
  10  -1  -9 28666.8 2261.51   1
 -10   1   9 26782.7 1652.36   2
 -10  -1   9 27381.8 1361.18   2
   9   1  -9 33033.5 2295.04   1
   9  -1  -9 37778.1 2500.34   1
  -9   1   9 32796.3 1729.51   2
  -9  -1   9 31997.2 1401.78   2
   8   1  -9 24693.7 1889.17   1
   8  -1  -9 26626.6 2057.24   1
  -8   1   9 25289.4 1436.26   2
  -8  -1   9 25552.2 1136.93   2
   7   1  -9 29910.1 2026.67   1
   7  -1  -9 26771.4 2009.87   1
  -7   1   9 27387.6 1453.58   2
  -7  -1   9 27472.9 1149.40   2
  -6  -1   9 37484.2 1334.13   2
   6  -1  -9 36466.6 2245.29   1
  -6   1   9 36688.9 1640.31   2
  -5  -1   9 29382.3 1145.52   2
   5  -1  -9 28350.2 1936.25   1
   5   1  -9 29629.6 1076.59   2
  -5   1   9 30581.3 1436.77   2
  -4   1   9 48045.8 1803.06   2
   4  -1  -9 44845.7 2302.59   1
   4   1  -9 45479.0 1388.04   2
  -3   1   9 82813.8 2454.47   2
   3  -1  -9 79808.7 2970.83   1
   3   1  -9 83237.4 2026.79   2
  -2   1   9 25313.2 1274.73   2
   2  -1  -9 24455.5 1461.96   1
   2   1  -9 24062.0 1020.17   2
  -1   1   9 30461.4 1428.13   2
   1  -1  -9 32495.9 1282.38   3
   1  -1  -9 30649.1 1519.82   1
   0  -1  -9 12306.8 785.110   3
   0   1  -9 12228.9 877.552   3
   0  -1  -9 11952.2 822.325   1
  -1  -1  -9 49089.1 1654.88   3
  -1   1  -9 49814.1 1830.25   3
  -1  -1  -9 49156.3 1488.60   1
  -2  -1  -9 46283.3 1683.11   3
  -2   1  -9 44695.7 1750.75   3
  -3  -1  -9 44911.6 1721.14   3
  -3   1  -9 46078.8 1793.37   3
  -4  -1  -9 40874.0 1734.54   3
  -4   1  -9 43089.8 1794.05   3
  -5  -1  -9 28362.9 1524.79   3
  -5   1  -9 26827.8 1464.42   3
  -6  -1  -9 5857.06 725.804   3
  -6   1  -9 7046.62 820.309   3
  -6   1  -9 6582.51 352.928   1
  -7  -1  -9 1789.17 544.148   3
  -7   1  -9 1689.25 541.707   3
  -8   1  -9 9165.77 1008.72   3
  -8  -1  -9 11733.6 1179.84   3
  -9  -1  -9 1204.33 553.294   3
  -9   1  -9 156.247 452.332   3
 -10  -1  -9 233.009 490.739   3
 -10   1  -9 1765.55 638.416   3
 -11  -1  -9 148.099 489.754   3
 -11   1  -9 1448.13 674.763   3
 -12  -1  -9 266.141 535.574   3
 -12   1  -9 532.684 450.835   3
 -13  -1  -9-820.831 628.884   3
 -13   1  -9 354.306 517.956   3
 -14   1  -9 1858.57 827.465   3
 -14  -1  -9 3267.15 961.542   3
 -15   1  -9 5998.86 1205.27   3
 -15  -1  -9 7922.15 1344.11   3
 -16   1  -9 10165.5 1547.44   3
 -16  -1  -9 10292.1 1534.69   3
  18  -2  -9 1095.94 720.567   1
  18   2  -9-1133.66 893.267   1
 -17   2   9-1090.05 729.667   2
  17  -2  -9 464.912 552.650   1
  17   2  -9 829.373 656.458   1
  16  -2  -9 659.096 657.462   1
 -16   2   9-194.483 459.741   2
  16   2  -9-1048.96 805.067   1
 -15   2   9-197.772 566.942   2
  15   2  -9-532.748 614.668   1
  15  -2  -9 842.848 629.131   1
  14   2  -9-33.8475 580.731   1
 -14   2   9-370.584 491.331   2
  14  -2  -9 120.028 595.333   1
  13   2  -9 1264.66 656.745   1
  13  -2  -9 841.656 724.683   1
 -13   2   9 892.144 553.126   2
  12   2  -9-181.652 574.969   1
  12  -2  -9-711.630 641.150   1
 -12   2   9 618.088 473.647   2
  11   2  -9 1307.23 642.165   1
  11  -2  -9 1171.70 619.324   1
 -11   2   9 1149.52 431.512   2
 -10   2   9 1395.31 477.959   2
  10  -2  -9 691.157 589.020   1
  -9   2   9-218.400 369.372   2
  -9  -2   9 182.565 165.767   2
   9  -2  -9 223.235 407.463   1
  -8   2   9 1194.87 417.277   2
   8  -2  -9 1222.30 467.428   1
  -8  -2   9 1162.86 218.647   2
  -7  -2   9 179.590 152.600   2
  -7   2   9 685.038 358.218   2
   7  -2  -9 426.190 397.486   1
  -6   2   9 766.147 350.120   2
   6  -2  -9 1130.34 498.559   1
   5  -2  -9 250.617 346.672   1
   5   2  -9 615.886 157.199   2
  -5   2   9 994.584 372.191   2
   4  -2  -9 1396.12 416.562   1
   4   2  -9 1265.89 204.238   2
  -4   2   9 614.694 271.450   2
  -3   2   9 8517.76 791.951   2
   3  -2  -9 9704.25 959.453   1
   3   2  -9 9255.95 541.903   2
   2  -2  -9 1230.61 413.918   1
   2  -2  -9 713.828 235.932   3
   2   2  -9 796.097 184.163   2
  -2   2   9 591.011 278.499   2
   1   2  -9 8979.68 621.670   2
  -1   2   9 8409.33 800.720   2
   1  -2  -9 8924.52 619.769   3
   0   2   9 1394.08 390.579   2
   0  -2  -9 1511.90 306.114   3
   0   2  -9 2040.89 456.250   3
  -1  -2  -9 1024.51 296.451   3
  -1   2  -9 799.639 360.131   3
  -2  -2  -9 3699.33 480.612   3
  -2   2  -9 3821.83 557.728   3
  -3  -2  -9 1425.66 385.576   3
  -3   2  -9 1537.25 407.448   3
  -4  -2  -9 7165.05 718.782   3
  -4   2  -9 7715.15 761.373   3
  -5  -2  -9 14243.1 1100.10   3
  -5   2  -9 16179.8 1169.91   3
  -6   2  -9 12927.4 1048.83   3
  -6  -2  -9 12751.8 1139.70   3
  -7   2  -9 43322.4 2048.48   3
  -7  -2  -9 46748.5 2256.87   3
  -8   2  -9 19966.0 1453.87   3
  -8  -2  -9 18408.0 1540.99   3
  -9   2  -9 25959.3 1750.86   3
  -9  -2  -9 28263.3 2001.75   3
 -10   2  -9 16432.7 1474.40   3
 -10  -2  -9 17419.4 1652.92   3
 -11  -2  -9 16031.9 1651.53   3
 -11   2  -9 17534.9 1580.30   3
 -12   2  -9 13602.3 1509.78   3
 -12  -2  -9 13568.0 1547.93   3
 -13   2  -9 12521.8 1476.83   3
 -13  -2  -9 12125.9 1501.54   3
 -14   2  -9 12847.9 1546.97   3
 -14  -2  -9 13505.9 1606.96   3
 -15  -2  -9 19164.8 2011.66   3
 -15   2  -9 19838.1 1990.06   3
 -16   2  -9 10803.2 1543.24   3
 -16  -2  -9 13105.4 1663.19   3
 -17  -2  -9 17411.2 1984.87   3
 -18   3   9 357.084 592.890   2
 -17   3   9-195.374 576.862   2
  17   3  -9 1691.56 892.698   1
  16   3  -9-171.025 535.305   1
 -16   3   9 1271.36 741.738   2
  15   3  -9-6.26757 513.601   1
 -15   3   9 188.881 464.373   2
  15  -3  -9 180.572 670.342   1
  14   3  -9 148.759 525.715   1
 -14   3   9 667.732 613.371   2
  14  -3  -9 1132.76 679.074   1
  13   3  -9 716.016 649.586   1
 -13   3   9 1300.45 593.739   2
  13  -3  -9 1887.77 933.514   1
 -12   3   9 21206.3 1801.51   2
  12  -3  -9 19788.5 2056.75   1
 -11   3   9 22658.6 1772.86   2
  11  -3  -9 19375.7 1961.37   1
 -10   3   9 23752.9 1737.56   2
  10  -3  -9 24026.6 2091.58   1
  -9   3   9 23078.9 1635.33   2
   9  -3  -9 20884.4 1893.70   1
  -8   3   9 20309.3 1475.41   2
   8  -3  -9 20838.5 1809.85   1
  -7   3   9 29633.8 1738.74   2
   7  -3  -9 29028.9 2050.81   1
   6  -3  -9 23540.8 1728.61   1
  -6   3   9 21208.1 1418.26   2
  -5   3   9 32804.0 1733.41   2
   4   3  -9 62470.9 1105.42   2
  -4   3   9 73949.1 2580.15   2
   3   3  -9 45782.9 1106.19   2
  -3   3   9 44551.7 1970.85   2
  -2   3   9 18749.1 1248.47   2
   2  -3  -9 18515.4 814.102   3
   2   3  -9 19146.3 766.545   2
  -1   3   9 8926.32 871.419   2
   1   3  -9 7879.73 595.822   2
   1  -3  -9 8223.77 549.550   3
   0   3   9 735.966 346.903   2
   0  -3  -9 323.828 194.742   3
   0   3  -9 231.102 254.327   3
   1   3   9 3264.58 571.122   1
   1   3   9 3414.62 587.221   2
  -1  -3  -9 3069.38 408.519   3
  -1   3  -9 2504.25 461.602   3
  -2  -3  -9 3051.84 409.705   3
   2   3   9 2998.69 499.210   1
  -2   3  -9 2859.60 527.026   3
  -3  -3  -9 604.040 293.670   3
  -3   3  -9 1018.09 409.676   3
  -4  -3  -9 141.222 337.972   3
  -4   3  -9-264.433 305.615   3
  -5  -3  -9 3478.92 585.470   3
  -5   3  -9 3134.66 575.783   3
  -6  -3  -9 7359.34 880.186   3
  -6   3  -9 6270.84 793.828   3
  -7   3  -9 34396.4 1875.08   3
  -7  -3  -9 34997.3 2040.28   3
  -8   3  -9 45048.4 2213.98   3
  -8  -3  -9 48853.0 2588.72   3
  -9   3  -9 35789.6 2059.42   3
  -9  -3  -9 38380.9 2348.51   3
 -10   3  -9 25081.5 1776.55   3
 -10  -3  -9 22695.5 1885.39   3
 -11  -3  -9 21036.3 1827.12   3
 -11   3  -9 20162.0 1696.55   3
 -12  -3  -9 20067.5 1861.04   3
 -12   3  -9 17372.2 1636.77   3
 -13  -3  -9 21813.7 2007.82   3
 -13   3  -9 20397.8 1852.10   3
 -14   3  -9 17124.4 1773.25   3
 -14  -3  -9 14768.8 1695.40   3
 -15  -3  -9 20132.7 2012.23   3
 -15   3  -9 19405.1 1989.50   3
 -16  -3  -9 17365.8 1905.06   3
 -17  -3  -9 9670.33 1492.00   3
 -19   4   9 7895.96 1465.45   2
 -18   4   9 17692.2 2079.21   2
  17   4  -9 18242.5 2098.64   1
 -17   4   9 15869.6 1919.14   2
  16   4  -9 17208.8 2010.46   1
 -16   4   9 17874.9 2007.80   2
  15   4  -9 26233.2 2366.85   1
 -15   4   9 29386.8 2417.72   2
 -14   4   9 25475.9 2229.17   2
 -13   4   9 32343.2 2395.84   2
 -12   4   9 40739.7 2549.53   2
 -11   4   9 28861.5 2089.74   2
 -10   4   9 13093.9 1356.41   2
  -9   4   9 4817.86 843.315   2
  -8   4   9 1724.71 528.168   2
  -7   4   9 2147.15 602.366   2
  -6   4   9 3892.99 670.716   2
   6  -4  -9 3199.01 423.469   3
   5  -4  -9 14455.4 795.499   3
  -5   4   9 15890.4 1274.56   2
   4  -4  -9 24027.6 933.704   3
  -4   4   9 26991.4 1639.06   2
   3  -4  -9 58923.9 1363.84   3
   3   4  -9 56197.7 1050.60   2
  -3   4   9 58708.4 2399.55   2
  -2   4   9 72336.7 2661.81   2
   2   4  -9 72172.4 1632.72   2
   2  -4  -9 73559.7 1596.64   3
  -1   4   9 107634. 3296.17   2
   1  -4  -9 104180. 2122.04   3
   0  -4  -9 86779.9 2041.76   3
   0   4   9 85738.2 2956.82   2
   0   4  -9 88687.4 2832.40   3
   1   4   9 150385. 4025.50   2
  -1   4  -9 146144. 3815.61   3
  -1  -4  -9 148994. 3140.28   3
   2   4   9 165489. 4284.51   2
  -2   4  -9 166877. 4103.78   3
   2   4   9 162100. 4491.68   1
  -2  -4  -9 166379. 3684.74   3
  -3   4  -9 155282. 4006.75   3
   3   4   9 164392. 4182.16   1
  -3  -4  -9 156590. 3912.21   3
  -4   4  -9 165783. 4216.40   3
  -4  -4  -9 178234. 4451.16   3
  -5   4  -9 146685. 3986.84   3
  -5  -4  -9 151583. 4296.69   3
  -6   4  -9 118947. 3601.96   3
  -6  -4  -9 124843. 3970.55   3
  -7   4  -9 159545. 4386.46   3
  -7  -4  -9 174162. 4971.87   3
  -8   4  -9 88614.9 3235.72   3
  -8  -4  -9 98236.9 3692.85   3
  -9   4  -9 59160.5 2734.80   3
  -9  -4  -9 67121.6 3120.99   3
 -10   4  -9 46904.7 2518.74   3
 -10  -4  -9 55499.6 2900.27   3
 -11   4  -9 19101.0 1624.52   3
 -11  -4  -9 24114.3 1929.04   3
 -12   4  -9 10979.3 1350.54   3
 -12  -4  -9 10823.8 1380.30   3
 -13   4  -9 5273.20 1019.43   3
 -13  -4  -9 4649.35 977.828   3
 -14   4  -9 5503.31 1031.99   3
 -14  -4  -9 6420.47 1118.28   3
 -15   4  -9 1724.00 783.588   3
 -15  -4  -9 2662.35 900.709   3
 -16  -4  -9 1056.33 751.954   3
 -17  -4  -9-118.533 556.664   3
 -17   5   9-148.835 616.905   2
 -16   5   9 3795.34 984.010   2
 -15   5   9 7390.04 1293.59   2
 -14   5   9 11373.9 1546.83   2
 -13   5   9 18266.7 1841.54   2
 -12   5   9 23077.9 1991.22   2
 -11   5   9 40007.8 2538.32   2
 -10   5   9 43329.4 2557.54   2
  -9   5   9 77677.5 3378.08   2
  -8   5   9 97025.1 3670.44   2
  -7   5   9 88889.0 3424.41   2
  -6   5   9 102982. 3650.08   2
  -5   5   9 124385. 3951.99   2
  -4   5   9 59402.8 2583.59   2
  -3   5   9 61138.6 2609.38   2
   2   5  -9 33134.0 954.684   2
  -2   5   9 36477.2 1960.55   2
  -1   5   9 88808.9 3149.64   2
   0   5   9 65223.2 2676.23   2
   0   5  -9 70978.0 2600.33   3
   1   5   9 43794.9 2157.90   2
  -1   5  -9 43753.8 2037.55   3
  -1  -5  -9 42388.1 1288.33   3
   2   5   9 17958.1 1387.47   2
  -2   5  -9 19616.8 1348.52   3
  -2  -5  -9 17832.9 968.322   3
  -3   5  -9 2888.11 610.888   3
  -3  -5  -9 1912.13 393.973   3
  -4   5  -9 2234.57 572.769   3
  -4  -5  -9 1208.80 337.953   3
  -5   5  -9 7111.11 880.291   3
  -5  -5  -9 6331.40 792.807   3
  -6   5  -9 10609.7 1083.28   3
  -6  -5  -9 10611.2 1072.44   3
  -7   5  -9 2503.17 624.208   3
  -7  -5  -9 2678.26 649.639   3
  -8   5  -9 6621.01 941.853   3
  -8  -5  -9 6235.96 914.101   3
  -9   5  -9 14765.3 1392.75   3
  -9  -5  -9 17534.3 1543.89   3
 -10   5  -9 27313.2 1945.32   3
 -10  -5  -9 30785.7 2122.85   3
 -11   5  -9 23282.6 1836.77   3
 -11  -5  -9 26428.7 2008.06   3
 -12  -5  -9 28636.6 2180.76   3
 -12   5  -9 27499.5 2080.30   3
 -13  -5  -9 24625.0 2077.78   3
 -13   5  -9 20416.9 1901.45   3
 -14  -5  -9 23778.9 2082.08   3
 -14   5  -9 20521.4 1981.97   3
 -15  -5  -9 14121.6 1669.52   3
 -16  -5  -9 15187.2 1808.51   3
 -16   6   9 1443.96 740.842   2
 -15   6   9 2710.87 894.599   2
 -14   6   9 3666.25 1041.33   2
 -13   6   9 3344.03 949.368   2
 -12   6   9-91.5303 495.402   2
 -11   6   9 617.157 564.366   2
 -10   6   9 806.508 494.725   2
  -9   6   9 714.143 558.955   2
  -8   6   9 203.318 430.079   2
  -7   6   9 305.547 342.672   2
  -6   6   9-105.741 385.245   2
  -5   6   9 1932.15 597.554   2
  -4   6   9 6479.53 907.894   2
  -3   6   9 9514.31 1097.46   2
  -2   6   9 11865.4 1180.23   2
  -1   6   9 13151.7 1231.94   2
   1   6  -9 13395.3 707.353   2
   0   6  -9 10668.4 1037.37   3
   0   6   9 9433.33 1043.17   2
   1   6   9 26184.6 1727.66   2
  -1   6  -9 25559.1 1575.74   3
   2   6   9 24320.5 1654.86   2
  -2   6  -9 22425.6 1484.66   3
   3   6   9 18767.0 1478.97   2
  -3   6  -9 20333.8 1418.32   3
  -4   6  -9 14226.6 1204.46   3
  -5   6  -9 8491.25 967.967   3
  -6   6  -9 4107.93 780.344   3
  -7   6  -9 4405.03 810.479   3
  -8   6  -9 2247.21 667.890   3
  -9   6  -9 1462.00 488.816   3
 -10   6  -9-39.4128 462.060   3
 -11   6  -9-259.745 613.416   3
 -12   6  -9 721.256 585.744   3
 -13   6  -9 1769.83 758.146   3
 -14   7   9 33.2176 609.210   2
 -13   7   9 65.2760 571.648   2
 -12   7   9-526.235 642.940   2
 -11   7   9 240.805 557.467   2
 -10   7   9-749.650 652.828   2
  -9   7   9-645.367 597.019   2
  -8   7   9 663.754 410.988   2
  -7   7   9 162.631 475.190   2
  -6   7   9-669.690 552.333   2
  -5   7   9 634.877 466.675   2
  -4   7   9 1325.78 553.876   2
  -3   7   9 1373.66 548.898   2
  -2   7   9 1292.99 601.930   2
  -1   7   9 1871.21 623.488   2
   0   7  -9 3772.95 684.696   3
   0   7   9 3716.05 760.065   2
   1   7   9 4837.72 852.475   2
  -1   7  -9 3955.92 510.163   2
  -1   7  -9 4200.36 741.415   3
   2   7   9 3184.68 655.399   2
  -2   7  -9 4210.45 720.400   3
   3   7   9 2764.65 673.894   2
  -3   7  -9 3119.57 670.766   3
  -4   7  -9 2977.95 655.149   3
  -5   7  -9 2374.57 597.778   3
  -6   7  -9 4718.10 807.168   3
  -7   7  -9 12139.6 1263.80   3
  -8   7  -9 4547.89 849.504   3
  -9   7  -9 11423.3 1312.31   3
 -10   7  -9 5214.91 965.655   3
 -11   7  -9 2509.90 705.507   3
 -12   7  -9 1778.49 715.447   3
 -12   8   9 10313.9 1517.02   2
 -11   8   9 10987.5 1470.92   2
 -10   8   9 6357.87 1148.32   2
  -9   8   9 4478.96 980.860   2
  -8   8   9 2814.72 831.179   2
  -7   8   9 3125.64 820.118   2
  -6   8   9 926.830 533.530   2
  -5   8   9 2546.16 740.621   2
  -4   8   9 1724.87 696.004   2
  -3   8   9 546.666 414.237   2
  -2   8   9 1133.08 540.333   2
   1   8  -9 2272.02 625.223   3
  -1   8   9 2472.08 648.357   2
   0   8  -9 5414.85 824.925   3
   0   8   9 5955.93 912.270   2
   1   8   9 3098.25 732.787   2
  -1   8  -9 2616.30 647.259   3
   2   8   9 2711.76 674.892   2
  -2   8  -9 2303.82 585.609   3
   3   8   9 4069.22 812.506   2
  -3   8  -9 3407.15 672.381   3
   4   8   9 2952.19 680.633   2
  -4   8  -9 2483.66 587.795   3
  -4   8  -9 2950.51 593.661   2
  -5   8  -9 4756.23 802.824   3
  -6   8  -9 6003.34 960.867   3
  -7   8  -9 1457.00 545.914   3
  -8   8  -9 840.955 549.410   3
  -9   8  -9 15.9032 471.421   3
 -10   8  -9 80.3804 506.008   3
 -11   8  -9 1839.05 623.643   3
  -9   9   9 6735.24 1239.05   2
  -8   9   9 10560.8 1483.51   2
  -7   9   9 14418.0 1604.43   2
  -6   9   9 17962.5 1772.53   2
  -5   9   9 13308.1 1489.36   2
  -4   9   9 19285.8 1747.85   2
  -3   9   9 15526.4 1576.30   2
   2   9  -9 12412.5 1288.91   3
  -2   9   9 10946.0 1275.02   2
   1   9  -9 8372.41 1082.12   3
  -1   9   9 7958.09 1112.16   2
   0   9  -9 10955.0 1216.41   3
   0   9   9 11547.7 1344.09   2
   1   9   9 7688.71 1080.57   2
  -1   9  -9 7330.04 995.991   3
   2   9   9 4693.75 880.589   2
  -2   9  -9 3968.35 734.258   3
   3   9   9 1212.32 634.450   2
  -3   9  -9 1756.68 597.656   3
   4   9   9-666.983 591.031   2
  -4   9  -9-64.2847 489.141   3
  -5   9  -9 601.350 501.612   3
  -6   9  -9 1019.32 600.336   3
  -7   9  -9 3575.54 900.741   2
  -7   9  -9 1593.86 591.468   3
  -8   9  -9 7423.64 1120.34   3
  -8   9  -9 5866.17 1143.90   2
  -9   9  -9 5986.71 1066.47   3
  -6  10   9 246.869 511.221   2
  -5  10   9 1362.65 736.041   2
  -4  10   9 394.640 487.790   2
   3  10  -9-83.1615 511.485   3
  -3  10   9 1520.07 657.875   2
   2  10  -9 871.670 582.895   3
  -2  10   9 1599.02 673.004   2
   1  10  -9 1942.18 627.999   3
  -1  10   9 1393.95 658.312   2
   0  10  -9 7019.77 1048.26   3
   0  10   9 8717.87 1259.26   2
   1  10   9 10477.4 1363.15   2
  -1  10  -9 9563.41 1192.56   3
   2  10   9 11580.4 1405.69   2
  -2  10  -9 10386.1 1205.39   3
   3  10   9 11268.2 1398.66   2
  -3  10  -9 12092.6 1315.66   3
   4  10   9 19557.2 1786.41   2
  -4  10  -9 17723.7 1608.98   3
  -5  10  -9 12691.4 1393.83   3
  -6  10  -9 9298.29 1258.97   3
  -7  10  -9 10246.3 1298.78   3
   4  11  -9 2722.95 858.641   3
   3  11  -9 3156.20 843.801   3
   2  11  -9 3570.45 914.588   3
   1  11  -9 4183.99 887.547   3
   0  11  -9 3425.91 799.686   3
  -1  11  -9 3024.71 746.633   3
  -2  11  -9 956.830 558.956   3
  -3  11  -9 2425.77 721.138   3
  -4  11  -9 2718.97 771.461   3
  17   0 -10 5797.13 1222.93   1
  16   0 -10 11349.5 1675.52   1
  15   0 -10 7131.85 1300.60   1
  14   0 -10 10113.7 1502.06   1
  13   0 -10 26448.1 2335.35   1
  12   0 -10 17184.3 1885.91   1
 -12   0  10 18332.1 1431.73   2
  11   0 -10 58022.2 3292.64   1
 -11   0  10 50564.1 2261.39   2
  10   0 -10 73942.5 3686.57   1
 -10   0  10 71684.9 2575.26   2
   9   0 -10 112055. 4527.87   1
  -9   0  10 109245. 3115.65   2
   8   0 -10 113466. 4476.39   1
  -8   0  10 111007. 3032.77   2
   7   0 -10 103571. 4196.67   1
  -7   0  10 104446. 2855.85   2
  -6   0  10 52953.4 1891.60   2
   6   0 -10 54486.4 2899.30   1
  -5   0  10 62388.0 2067.69   2
   5   0 -10 65571.5 3074.95   1
  -4   0  10 27336.6 1308.79   2
   4   0 -10 28504.4 1947.33   1
   3   0 -10 53020.5 2592.26   1
   2   0 -10 39207.5 2096.54   1
   1   0 -10 49132.3 2248.40   1
   1   0 -10 53678.1 1895.51   3
   0   0 -10 14058.6 1108.14   1
   0   0 -10 15466.4 1012.43   3
  -1   0 -10 3183.83 480.232   1
  -1   0 -10 2881.24 497.282   3
  -2   0 -10 913.034 260.579   1
  -2   0 -10 515.612 269.896   3
  -3   0 -10 19935.2 1217.62   3
  -3   0 -10 19837.0 823.742   1
  -4   0 -10 62432.0 2258.43   3
  -5   0 -10 62340.6 2370.47   3
  -6   0 -10 76047.3 2771.93   3
  -7   0 -10 65833.1 2677.05   3
  -8   0 -10 184875. 4998.38   3
  -9   0 -10 123035. 4122.57   3
 -10   0 -10 122614. 4321.00   3
 -11   0 -10 132303. 4714.59   3
 -12   0 -10 105487. 4336.49   3
 -13   0 -10 74212.9 3800.72   3
 -14   0 -10 79230.4 4068.64   3
 -15   0 -10 52237.2 3390.72   3
 -16   0 -10 70321.2 4033.30   3
  17  -1 -10 7106.57 1386.25   1
  17   1 -10 6996.78 1338.56   1
  16   1 -10 9268.60 1498.25   1
  16  -1 -10 6959.41 1354.15   1
  15  -1 -10 6600.95 1296.29   1
  15   1 -10 6996.59 1288.00   1
 -14   1  10 8951.06 1251.79   2
  14  -1 -10 6940.62 1267.04   1
  14   1 -10 8530.03 1415.51   1
 -13   1  10 10610.9 1246.48   2
  13  -1 -10 11939.3 1622.63   1
  13   1 -10 11757.1 1529.29   1
  12  -1 -10 2973.95 849.612   1
  12   1 -10 2611.88 777.102   1
 -12   1  10 3222.54 706.334   2
  11  -1 -10 7725.20 1240.32   1
  11   1 -10 8862.90 1293.97   1
 -11   1  10 8815.74 1021.71   2
  10  -1 -10 3166.80 851.571   1
  10   1 -10 2972.47 743.526   1
 -10   1  10 3004.91 583.744   2
 -10  -1  10 3520.02 509.247   2
   9  -1 -10-424.654 573.446   1
   9   1 -10 355.244 485.616   1
  -9   1  10 361.256 267.758   2
  -9  -1  10 622.560 249.326   2
   8  -1 -10 851.669 453.676   1
   8   1 -10-339.618 513.006   1
  -8   1  10 178.237 259.213   2
  -8  -1  10 170.673 224.139   2
   7  -1 -10 1558.07 602.897   1
   7   1 -10 3139.48 741.182   1
  -7   1  10 2582.04 486.338   2
  -7  -1  10 2694.14 371.305   2
  -6  -1  10 2638.22 386.710   2
   6   1 -10 3380.84 767.229   1
   6   1 -10 2727.50 339.171   2
  -6   1  10 2474.38 471.606   2
   6  -1 -10 2997.85 722.641   1
  -5   1  10 9333.92 832.176   2
   5   1 -10 9424.83 631.219   2
   5  -1 -10 9573.10 1140.28   1
  -4   1  10 29839.5 1481.04   2
   4  -1 -10 28887.4 1912.46   1
   4   1 -10 26843.3 1121.52   2
  -3   1  10 40667.0 1755.24   2
   3  -1 -10 40099.9 2114.06   1
   3   1 -10 40816.4 1432.15   2
  -2   1  10 56685.0 2119.38   2
   2  -1 -10 59242.4 2406.38   1
   1  -1 -10 72865.3 2171.85   3
   1  -1 -10 74963.6 2516.02   1
   0  -1 -10 105155. 2720.09   3
   0   1 -10 113050. 3051.89   3
   0  -1 -10 108729. 2816.99   1
  -1  -1 -10 126610. 3061.77   3
  -1   1 -10 124811. 3255.23   3
  -1  -1 -10 122441. 2734.44   1
  -2  -1 -10 118199. 3043.52   3
  -2   1 -10 118769. 3174.06   3
  -3  -1 -10 117200. 3092.17   3
  -3   1 -10 111580. 3115.20   3
  -4  -1 -10 110472. 3154.53   3
  -4   1 -10 110205. 3160.93   3
  -5  -1 -10 89221.4 2895.91   3
  -5   1 -10 83064.2 2793.52   3
  -6  -1 -10 67087.8 2632.78   3
  -6   1 -10 66935.5 2572.95   3
  -7  -1 -10 42284.1 2168.39   3
  -7   1 -10 45083.4 2159.57   3
  -8   1 -10 55131.2 2536.80   3
  -8  -1 -10 60434.0 2709.68   3
  -9   1 -10 26610.5 1808.80   3
  -9  -1 -10 27966.8 1941.48   3
 -10  -1 -10 17132.7 1592.08   3
 -10   1 -10 12636.4 1343.95   3
 -11  -1 -10 9842.19 1270.84   3
 -11   1 -10 10329.5 1325.50   3
 -12  -1 -10 2020.62 695.397   3
 -12   1 -10 3238.13 879.489   3
 -13  -1 -10-177.802 527.159   3
 -13   1 -10 476.388 626.416   3
 -14  -1 -10-312.131 674.805   3
 -14   1 -10 903.591 700.646   3
 -15   1 -10 2239.48 790.831   3
 -15  -1 -10 2456.95 886.001   3
 -16  -1 -10 4170.35 1077.08   3
  17  -2 -10 11114.2 1693.36   1
  17   2 -10 10944.7 1645.53   1
  16  -2 -10 15032.6 1909.44   1
  16   2 -10 12973.5 1747.84   1
 -15   2  10 7889.93 1290.96   2
  15   2 -10 6628.61 1249.87   1
  15  -2 -10 9337.86 1523.69   1
  14   2 -10 4843.17 1166.42   1
 -14   2  10 3717.48 907.219   2
  14  -2 -10 3427.11 989.470   1
  13   2 -10 4600.70 1011.52   1
  13  -2 -10 7170.19 1267.51   1
 -13   2  10 5793.10 1007.73   2
  12   2 -10 739.843 557.575   1
 -12   2  10 749.437 510.364   2
  11   2 -10 662.968 581.304   1
  11  -2 -10 850.610 588.585   1
 -11   2  10-69.1181 416.058   2
  10   2 -10-12.5022 459.990   1
 -10   2  10-335.870 371.676   2
  10  -2 -10-204.115 564.339   1
  -9   2  10 288.792 338.151   2
   9  -2 -10 116.148 438.161   1
  -8   2  10 207.721 306.173   2
   8  -2 -10 187.034 402.864   1
  -7   2  10 6621.35 801.682   2
   7  -2 -10 6509.98 1006.77   1
   6  -2 -10 26772.5 1889.65   1
  -6   2  10 32351.4 1695.28   2
   5   2 -10 40096.2 1145.83   2
   5  -2 -10 42073.5 2254.76   1
  -5   2  10 44476.1 1958.55   2
  -4   2  10 61432.3 2325.74   2
   4   2 -10 60737.2 1565.45   2
   4  -2 -10 61090.0 2616.90   1
  -3   2  10 45948.1 1964.51   2
   3  -2 -10 45893.4 2116.10   1
   3   2 -10 44736.5 1381.82   2
  -2   2  10 41346.2 1851.84   2
   2  -2 -10 37036.0 1384.06   3
   2  -2 -10 37628.7 1760.83   1
   2   2 -10 35079.2 1268.13   2
  -1   2  10 18222.3 1250.43   2
   1  -2 -10 17706.9 952.737   3
   0  -2 -10 29313.1 1250.16   3
   0   2 -10 30210.1 1559.65   3
  -1  -2 -10 32866.2 1394.15   3
  -1   2 -10 34648.3 1653.19   3
  -2  -2 -10 41038.5 1631.41   3
  -2   2 -10 39564.4 1801.32   3
  -3  -2 -10 35376.5 1590.09   3
  -3   2 -10 33131.6 1664.86   3
  -4  -2 -10 21910.0 1318.04   3
  -4   2 -10 21545.6 1354.61   3
  -5   2 -10 9305.84 934.848   3
  -5  -2 -10 8418.68 871.978   3
  -6  -2 -10 7791.54 923.946   3
  -6   2 -10 6293.15 788.710   3
  -7  -2 -10 638.028 396.043   3
  -7   2 -10 607.525 344.196   3
  -8  -2 -10 4551.45 831.044   3
  -8   2 -10 3972.69 695.906   3
  -9  -2 -10 2892.05 750.325   3
  -9   2 -10 1844.10 580.441   3
 -10  -2 -10 696.362 574.866   3
 -10   2 -10-645.182 614.288   3
 -11  -2 -10-218.079 528.320   3
 -11   2 -10 1377.24 691.966   3
 -12  -2 -10-21.2928 632.300   3
 -12   2 -10 931.446 588.990   3
 -13   2 -10 3316.44 847.369   3
 -13  -2 -10 2412.79 735.614   3
 -14   2 -10 5076.49 1041.19   3
 -14  -2 -10 5086.27 1144.03   3
 -15   2 -10 3454.83 962.570   3
 -15  -2 -10 3766.76 993.301   3
 -16  -2 -10 1432.53 767.980   3
 -17   3  10 1561.77 688.883   2
  17   3 -10 2384.35 875.725   1
  16   3 -10 4778.66 1130.87   1
 -16   3  10 5043.24 1129.88   2
  15  -3 -10 11008.9 1736.66   1
  15   3 -10 12960.8 1693.79   1
 -15   3  10 13126.3 1662.23   2
  14   3 -10 14319.5 1760.39   1
  14  -3 -10 14428.3 1854.70   1
 -14   3  10 15155.1 1728.90   2
  13   3 -10 31137.6 2496.13   1
 -13   3  10 28839.8 2242.81   2
  13  -3 -10 29097.3 2539.33   1
 -12   3  10 52251.1 2917.16   2
  12  -3 -10 47333.4 3194.76   1
 -11   3  10 32391.2 2187.23   2
  11  -3 -10 32335.8 2589.76   1
 -10   3  10 47495.1 2558.23   2
  10  -3 -10 50176.2 3057.96   1
  -9   3  10 58948.0 2750.81   2
   9  -3 -10 60204.8 3293.96   1
  -8   3  10 68085.5 2866.81   2
   8  -3 -10 68563.2 3372.13   1
  -7   3  10 82815.1 3079.33   2
   7  -3 -10 88053.5 3671.39   1
  -6   3  10 71892.4 2784.70   2
   6  -3 -10 72892.4 3173.43   1
  -5   3  10 61751.1 2542.39   2
   4   3 -10 66215.9 1336.72   2
  -4   3  10 67910.3 2626.86   2
  -3   3  10 19346.4 1363.05   2
   3  -3 -10 19009.1 896.058   3
   3   3 -10 19364.6 760.973   2
  -2   3  10 30353.4 1682.53   2
   2  -3 -10 31781.5 1175.90   3
   2   3 -10 28984.7 1061.85   2
   1   3 -10 20022.1 1008.02   2
  -1   3  10 20060.3 1348.31   2
   1  -3 -10 19817.0 945.107   3
   0   3  10 34615.4 1811.71   2
   0  -3 -10 33393.5 1314.84   3
   0   3 -10 35223.1 1723.59   3
  -1  -3 -10 25307.1 1192.73   3
  -1   3 -10 25903.3 1501.50   3
  -2  -3 -10 5064.00 582.951   3
  -2   3 -10 5310.75 729.472   3
  -3  -3 -10 1845.32 388.417   3
  -3   3 -10 2666.85 550.650   3
  -4  -3 -10 2819.56 537.716   3
  -4   3 -10 1558.04 467.715   3
  -5  -3 -10 632.656 407.113   3
  -5   3 -10 607.920 445.669   3
  -6  -3 -10 667.085 499.635   3
  -6   3 -10 1276.77 562.220   3
  -7  -3 -10 220.187 341.935   3
  -7   3 -10 1010.33 475.633   3
  -8  -3 -10 476.889 388.379   3
  -8   3 -10 907.858 478.952   3
  -9  -3 -10 1634.92 599.144   3
  -9   3 -10 3077.51 689.597   3
 -10   3 -10 504.873 364.735   3
 -10  -3 -10-651.441 651.448   3
 -11   3 -10 221.766 525.448   3
 -11  -3 -10-613.735 660.957   3
 -12   3 -10 3317.14 850.211   3
 -12  -3 -10 295.740 515.829   3
 -13   3 -10 1310.18 704.271   3
 -13  -3 -10 1378.29 704.158   3
 -14   3 -10 1053.99 593.602   3
 -14  -3 -10 385.496 494.546   3
 -15  -3 -10 465.487 561.167   3
 -16  -3 -10-432.447 562.801   3
 -18   4  10 718.386 649.055   2
 -17   4  10 1965.23 832.995   2
  16   4 -10 1066.40 630.746   1
 -16   4  10 2695.45 898.422   2
  15   4 -10 923.074 569.931   1
 -15   4  10 1222.68 586.098   2
 -14   4  10 1253.06 581.196   2
 -13   4  10-32.3050 468.258   2
 -12   4  10 632.081 600.610   2
 -11   4  10 201.547 436.629   2
 -10   4  10 990.157 485.126   2
  -9   4  10 2976.28 717.322   2
  -8   4  10 6838.10 979.767   2
  -7   4  10 3901.83 749.364   2
  -6   4  10 4073.27 763.449   2
  -5   4  10 11215.3 1131.13   2
   4  -4 -10 14799.9 700.972   3
  -4   4  10 16029.5 1309.97   2
  -3   4  10 10679.2 1053.21   2
   3  -4 -10 9961.51 576.802   3
  -2   4  10 24443.1 1586.85   2
   2  -4 -10 25328.4 960.123   3
  -1   4  10 12212.5 1119.22   2
   1  -4 -10 12979.0 703.477   3
   0  -4 -10 26081.2 1088.85   3
   0   4  10 25995.6 1626.30   2
   0   4 -10 26419.5 1578.63   3
   1   4  10 10297.0 1039.01   2
  -1   4 -10 10231.9 1007.24   3
  -1  -4 -10 10439.9 766.054   3
  -2  -4 -10 2198.52 445.296   3
  -2   4 -10 2320.35 585.513   3
  -3  -4 -10 1363.03 403.528   3
  -3   4 -10 2471.19 588.526   3
  -4  -4 -10 1727.26 479.120   3
  -4   4 -10 1275.00 434.541   3
  -5  -4 -10 1609.00 462.725   3
  -5   4 -10 1362.63 476.400   3
  -6  -4 -10 3276.51 624.997   3
  -6   4 -10 4060.38 690.656   3
  -7   4 -10-243.917 358.781   3
  -7  -4 -10-179.550 441.761   3
  -8   4 -10 1019.10 426.463   3
  -8  -4 -10 1919.72 521.740   3
  -9   4 -10 1228.02 517.980   3
  -9  -4 -10 567.992 437.161   3
 -10   4 -10 1346.88 555.916   3
 -10  -4 -10 2408.36 620.356   3
 -11   4 -10 1469.94 577.973   3
 -11  -4 -10 3478.75 817.979   3
 -12   4 -10 2828.19 823.829   3
 -12  -4 -10 2924.22 833.626   3
 -13   4 -10 793.272 611.734   3
 -13  -4 -10 834.413 474.676   3
 -14   4 -10 472.558 428.560   3
 -14  -4 -10 890.742 709.428   3
 -15  -4 -10-254.372 595.758   3
 -16  -4 -10 322.548 553.421   3
 -17   5  10 1213.12 775.481   2
 -16   5  10 252.937 682.530   2
 -15   5  10-792.968 823.699   2
 -14   5  10 144.242 590.293   2
 -13   5  10-422.533 542.341   2
 -12   5  10 233.302 469.039   2
 -11   5  10 548.081 421.593   2
 -10   5  10-290.784 495.435   2
  -9   5  10 1595.12 650.368   2
  -8   5  10 2834.55 756.212   2
  -7   5  10 4848.01 843.754   2
  -6   5  10 8524.89 1060.70   2
  -5   5  10 13918.5 1316.72   2
  -4   5  10 17740.7 1441.71   2
  -3   5  10 5558.23 844.415   2
  -2   5  10 12354.2 1198.83   2
  -1   5  10 20276.1 1511.05   2
   0   5  10 35284.9 1965.01   2
   0   5 -10 32245.1 1805.14   3
   1   5  10 28310.8 1787.08   2
  -1   5 -10 28987.6 1706.14   3
   2   5  10 30345.5 1842.32   2
  -2   5 -10 30779.6 1750.34   3
  -3   5 -10 35331.1 1899.40   3
  -3  -5 -10 38707.3 1776.37   3
  -4   5 -10 28913.9 1734.40   3
  -4  -5 -10 31466.0 1700.48   3
  -5   5 -10 15881.6 1327.71   3
  -5  -5 -10 18636.9 1378.47   3
  -6   5 -10 7945.01 943.918   3
  -6  -5 -10 10012.1 1061.94   3
  -7   5 -10 12573.0 1245.87   3
  -7  -5 -10 14843.8 1341.16   3
  -8   5 -10 9090.73 1092.86   3
  -8  -5 -10 11948.1 1274.07   3
  -9   5 -10 1019.08 518.399   3
  -9  -5 -10 2367.91 641.688   3
 -10   5 -10 1455.38 564.352   3
 -10  -5 -10 3166.62 724.587   3
 -11   5 -10-42.7364 460.483   3
 -11  -5 -10 1178.70 643.146   3
 -12   5 -10 947.171 593.516   3
 -12  -5 -10 1015.52 594.580   3
 -13   5 -10 77.7701 490.449   3
 -16   6  10 1688.88 714.940   2
 -15   6  10 486.104 577.493   2
 -14   6  10 745.361 493.884   2
 -13   6  10 2494.51 931.341   2
 -12   6  10 905.083 641.236   2
 -11   6  10 2410.21 742.392   2
 -10   6  10 1037.86 580.393   2
  -9   6  10 1526.69 587.133   2
  -8   6  10 2204.09 737.400   2
  -7   6  10 2378.30 663.649   2
  -6   6  10 3008.49 710.507   2
  -5   6  10 437.765 342.166   2
  -4   6  10-107.736 344.184   2
  -3   6  10 1017.39 533.020   2
  -2   6  10 1560.45 530.176   2
  -1   6  10-165.893 373.988   2
   0   6  10 2413.14 607.833   2
   0   6 -10 2696.60 564.528   3
   1   6  10 1827.70 550.279   2
  -1   6 -10 1752.36 507.629   3
   2   6  10 690.156 450.137   2
  -2   6 -10 245.175 317.763   3
  -3   6 -10 166.138 303.216   3
  -4   6 -10 1522.91 517.871   3
  -5   6 -10 5944.98 870.522   3
  -6   6 -10 17557.9 1449.42   3
  -7   6 -10 7861.88 1051.36   3
  -8   6 -10 23992.3 1785.08   3
  -9   6 -10 12694.0 1355.55   3
 -10   6 -10 4875.33 876.099   3
 -11   6 -10 7395.52 1148.20   3
 -12   6 -10 4981.85 982.511   3
 -14   7  10 777.082 600.629   2
 -13   7  10 2124.15 825.827   2
 -12   7  10 182.534 573.254   2
 -11   7  10 1526.02 759.452   2
 -10   7  10 1632.59 682.133   2
  -9   7  10 427.860 592.338   2
  -8   7  10 109.748 598.428   2
  -7   7  10 411.798 567.824   2
  -6   7  10 683.866 519.109   2
  -5   7  10 2490.15 694.110   2
  -4   7  10 1366.96 544.386   2
  -3   7  10 1425.94 566.303   2
  -2   7  10 209.322 416.668   2
   1   7 -10 1766.58 595.638   3
  -1   7  10 2286.31 698.782   2
   0   7  10 1356.33 584.994   2
   0   7 -10 1721.72 522.675   3
   1   7  10 2079.65 630.418   2
  -1   7 -10 1553.00 528.555   3
   2   7  10 2588.68 699.045   2
  -2   7 -10 4356.75 761.898   3
   3   7  10 1822.07 574.908   2
  -3   7 -10 1891.21 564.244   3
  -4   7 -10 1698.79 608.215   3
  -5   7 -10 322.447 419.832   3
  -6   7 -10 2773.53 726.019   3
  -7   7 -10 1511.84 618.636   3
  -8   7 -10 1001.62 558.413   3
  -9   7 -10 1259.81 653.657   3
 -10   7 -10 1696.58 652.193   3
 -11   7 -10 1071.92 592.610   3
 -11   8  10 13022.1 1641.07   2
 -10   8  10 13843.0 1667.75   2
  -9   8  10 14298.5 1633.53   2
  -8   8  10 12765.8 1524.79   2
  -7   8  10 9683.86 1308.61   2
  -6   8  10 9382.44 1255.17   2
  -5   8  10 10582.9 1323.66   2
  -4   8  10 4857.76 923.791   2
  -3   8  10 2708.82 695.104   2
  -2   8  10 713.085 564.003   2
   1   8 -10-135.069 414.237   3
  -1   8  10-92.2956 440.892   2
   0   8  10-184.846 447.137   2
   0   8 -10 196.970 433.369   3
   1   8  10 3124.27 721.765   2
  -1   8 -10 2870.48 671.613   3
   2   8  10 1175.47 578.965   2
  -2   8 -10 1612.40 575.581   3
   3   8  10 4652.40 922.836   2
  -3   8 -10 4534.59 832.870   3
  -4   8 -10 7034.46 980.484   3
  -5   8 -10 14616.3 1393.83   3
  -6   8 -10 14489.5 1430.23   3
  -7   8 -10 16000.4 1534.06   3
  -8   8 -10 26252.5 2003.29   3
  -9   8 -10 15717.0 1602.17   3
 -10   8 -10 13350.0 1554.15   3
  -8   9  10 3178.63 898.761   2
  -7   9  10 6610.59 1175.08   2
  -6   9  10 6776.98 1206.97   2
  -5   9  10 8800.75 1282.95   2
  -4   9  10 10631.1 1348.05   2
  -3   9  10 21976.1 1895.10   2
  -2   9  10 23166.1 1959.32   2
   2   9 -10 24971.8 1928.41   3
  -1   9  10 18136.8 1704.14   2
   1   9 -10 19686.6 1656.00   3
   0   9  10 19746.9 1778.99   2
   0   9 -10 22661.6 1733.54   3
   1   9  10 18396.9 1707.15   2
  -1   9 -10 16547.2 1495.60   3
   2   9  10 17738.0 1679.03   2
  -2   9 -10 18670.4 1602.33   3
   3   9  10 17929.8 1705.18   2
  -3   9 -10 21032.3 1689.32   3
  -4   9 -10 19718.6 1652.38   3
  -5   9 -10 17207.4 1603.76   3
  -6   9 -10 17335.3 1625.60   3
  -7   9 -10 9806.30 1278.10   3
  -8   9 -10 6368.09 1094.84   3
   3  10 -10 1472.41 631.409   3
  -3  10  10 2901.70 854.360   2
   2  10 -10 782.389 567.109   3
  -2  10  10 1302.20 670.285   2
   1  10 -10 56.6510 565.823   3
  -1  10  10 337.607 537.157   2
   0  10  10 1866.78 716.245   2
   0  10 -10 1953.52 630.010   3
   1  10  10-478.963 554.686   2
  -1  10 -10 346.433 414.487   3
   2  10  10 0.84830 488.191   2
  -2  10 -10-26.0005 448.414   3
  -3  10 -10-53.9052 438.874   3
  -4  10 -10-1.47217 382.576   3
  -5  10 -10 671.309 572.853   3
  17   0 -11 173.569 669.122   1
  16   0 -11-269.213 627.590   1
  15   0 -11 565.906 614.857   1
  14   0 -11 770.775 772.089   1
  13   0 -11 171.865 505.916   1
  12   0 -11 82.0703 540.453   1
  11   0 -11-617.891 709.565   1
 -10   0  11-105.563 231.616   2
  10   0 -11-704.384 644.874   1
   9   0 -11-460.903 470.509   1
  -9   0  11 68.1430 233.692   2
   8   0 -11 154.105 507.755   1
  -8   0  11 188.475 219.425   2
   7   0 -11-143.766 485.962   1
  -7   0  11-0.71208 216.420   2
  -6   0  11 15.0885 227.734   2
   6   0 -11-241.600 559.714   1
  -5   0  11 18.9850 221.616   2
   5   0 -11-314.328 474.390   1
  -4   0  11-147.335 273.339   2
   4   0 -11-49.2354 371.520   1
   3   0 -11 408.589 364.509   1
   2   0 -11 209.028 308.561   1
   1   0 -11-546.362 360.189   1
   1   0 -11 211.967 299.730   3
   0   0 -11-352.000 313.578   1
   0   0 -11-13.7782 250.075   3
  -1   0 -11 40.4625 232.893   1
  -1   0 -11 232.810 298.730   3
  -2   0 -11 131.148 284.783   3
  -2   0 -11-145.623 221.189   1
  -3   0 -11 168.014 123.482   1
  -3   0 -11 517.465 354.574   3
  -4   0 -11 33.4907 295.434   3
  -5   0 -11 757.430 408.422   3
  -6   0 -11 508.335 422.171   3
  -7   0 -11 891.890 473.351   3
  -8   0 -11 15.5237 404.984   3
  -9   0 -11 1239.12 624.282   3
 -10   0 -11 777.226 545.449   3
 -11   0 -11 448.560 563.613   3
 -12   0 -11 260.707 467.661   3
 -13   0 -11-28.3791 503.552   3
 -14   0 -11-425.364 697.090   3
 -15   0 -11-1165.89 867.798   3
  16   1 -11-284.585 590.608   1
  16  -1 -11 815.395 704.342   1
  15  -1 -11-1216.14 790.118   1
  15   1 -11-427.860 781.739   1
  14  -1 -11-272.464 597.736   1
  14   1 -11 242.177 501.619   1
  13  -1 -11 144.636 557.929   1
  13   1 -11-378.750 709.339   1
  12  -1 -11 144.309 639.717   1
  12   1 -11 10.1310 630.087   1
 -12   1  11 7.29029 381.002   2
  11  -1 -11 6302.75 1163.56   1
  11   1 -11 6570.39 1201.14   1
 -11   1  11 6519.22 884.003   2
  10   1 -11 14677.5 1666.59   1
  10  -1 -11 14368.9 1699.22   1
 -10   1  11 14203.5 1234.93   2
   9   1 -11 17950.5 1795.58   1
   9  -1 -11 20128.0 1921.79   1
  -9   1  11 19130.5 1361.84   2
  -8  -1  11 15238.5 945.110   2
   8   1 -11 16826.0 1731.59   1
   8  -1 -11 17332.7 1722.24   1
  -8   1  11 17543.5 1290.55   2
  -7  -1  11 29323.5 1306.54   2
   7   1 -11 29917.5 2223.63   1
   7  -1 -11 32573.5 2332.30   1
  -7   1  11 30726.2 1643.20   2
  -6   1  11 44629.9 1950.05   2
   6   1 -11 42907.2 2594.26   1
   6  -1 -11 41505.0 2575.47   1
  -5   1  11 16081.6 1166.98   2
   5   1 -11 18142.6 1661.06   1
   5  -1 -11 15765.0 1503.50   1
  -4   1  11 48803.6 2028.58   2
   4  -1 -11 46556.8 2491.11   1
  -3   1  11 121729. 3412.20   2
   3  -1 -11 124332. 4001.51   1
   2  -1 -11 106547. 2863.35   3
   2  -1 -11 105296. 3422.43   1
   1  -1 -11 112374. 2936.70   3
   1   1 -11 112436. 3209.08   3
   1  -1 -11 111074. 3260.74   1
   0  -1 -11 124588. 3134.38   3
   0   1 -11 122017. 3387.73   3
   0  -1 -11 118463. 3082.31   1
  -1  -1 -11 62368.9 2123.87   3
  -1   1 -11 60496.7 2264.36   3
  -1  -1 -11 59025.3 1797.70   1
  -2  -1 -11 42948.6 1792.91   3
  -2   1 -11 39966.5 1808.88   3
  -3  -1 -11 48155.6 1958.93   3
  -3   1 -11 45045.8 1974.08   3
  -4  -1 -11 45333.2 2007.41   3
  -4   1 -11 46819.5 2070.45   3
  -5  -1 -11 53405.0 2283.92   3
  -5   1 -11 55463.4 2293.82   3
  -6  -1 -11 57035.1 2453.41   3
  -6   1 -11 53586.0 2347.19   3
  -7  -1 -11 31222.6 1895.52   3
  -7   1 -11 30938.9 1840.69   3
  -8   1 -11 18561.7 1523.51   3
  -8  -1 -11 17586.2 1506.75   3
  -9  -1 -11 6234.01 1007.51   3
  -9   1 -11 5168.09 846.401   3
 -10  -1 -11 774.383 504.200   3
 -10   1 -11 1134.07 591.188   3
 -11  -1 -11 379.954 456.571   3
 -11   1 -11 1305.54 715.789   3
 -12  -1 -11 1038.52 664.270   3
 -12   1 -11 794.906 544.839   3
 -13  -1 -11 2388.77 804.274   3
 -13   1 -11 2279.74 840.176   3
 -14  -1 -11-591.091 849.483   3
 -14   1 -11-614.079 651.425   3
 -15   1 -11 1659.58 840.334   3
 -15  -1 -11 464.453 578.824   3
  16  -2 -11 13787.9 1844.24   1
  16   2 -11 11943.4 1716.20   1
  15   2 -11 15644.9 1945.06   1
  15  -2 -11 13792.2 1874.56   1
  14   2 -11 23224.9 2273.95   1
 -14   2  11 24075.1 2134.63   2
  14  -2 -11 25149.0 2427.94   1
  13   2 -11 18004.8 1947.70   1
  13  -2 -11 19912.8 2087.03   1
 -13   2  11 20014.4 1855.29   2
  12   2 -11 32402.2 2554.46   1
  12  -2 -11 30847.2 2521.36   1
 -12   2  11 30569.4 2166.81   2
  11   2 -11 21933.4 2047.37   1
  11  -2 -11 27610.1 2320.81   1
 -11   2  11 24939.8 1851.79   2
  10   2 -11 33486.6 2475.06   1
  10  -2 -11 34271.6 2571.42   1
 -10   2  11 35791.4 2109.25   2
   9  -2 -11 28502.2 2248.11   1
  -9   2  11 30733.1 1873.69   2
   8  -2 -11 30490.0 2266.72   1
  -8   2  11 29457.8 1801.01   2
   7  -2 -11 23350.3 1900.98   1
  -7   2  11 24622.9 1586.91   2
   6  -2 -11 20627.4 1722.86   1
  -6   2  11 20206.8 1396.45   2
   5  -2 -11 4868.88 859.939   1
  -5   2  11 7422.42 847.880   2
  -4   2  11 22395.6 1442.29   2
   4  -2 -11 21774.2 1595.23   1
  -3   2  11 580.081 344.339   2
   3   2 -11 404.112 180.032   2
   3  -2 -11 920.583 387.859   1
  -2   2  11 603.814 352.812   2
   2  -2 -11 585.164 351.726   1
   2  -2 -11 772.100 278.873   3
  -1   2  11 1815.42 455.154   2
   1  -2 -11 1988.19 364.220   3
   1   2 -11 2290.81 495.166   3
   0  -2 -11 916.487 301.495   3
   0   2 -11 1234.94 402.790   3
  -1  -2 -11 12058.3 896.776   3
  -1   2 -11 9881.06 950.077   3
  -2  -2 -11 21250.9 1230.79   3
  -2   2 -11 19643.9 1326.80   3
  -3  -2 -11 20289.1 1257.45   3
  -3   2 -11 21132.7 1375.42   3
  -4  -2 -11 18616.0 1273.07   3
  -4   2 -11 16911.9 1247.72   3
  -5  -2 -11 30986.8 1714.26   3
  -5   2 -11 30336.7 1722.95   3
  -6   2 -11 37026.4 1957.89   3
  -6  -2 -11 42616.6 2145.47   3
  -7   2 -11 64293.1 2704.53   3
  -7  -2 -11 68094.6 2888.84   3
  -8   2 -11 22278.1 1628.74   3
  -8  -2 -11 23854.3 1783.06   3
  -9   2 -11 32728.0 2049.37   3
  -9  -2 -11 35908.1 2278.05   3
 -10   2 -11 33012.9 2129.18   3
 -10  -2 -11 37373.1 2500.02   3
 -11  -2 -11 19398.8 1898.15   3
 -11   2 -11 19846.6 1774.95   3
 -12  -2 -11 14934.9 1756.04   3
 -12   2 -11 17188.3 1748.48   3
 -13   2 -11 15239.3 1687.18   3
 -13  -2 -11 16084.1 1828.72   3
 -14   2 -11 12043.3 1514.29   3
 -14  -2 -11 11734.7 1633.21   3
 -15  -2 -11 13665.1 1752.77   3
  16   3 -11 345.565 703.443   1
  15   3 -11 795.371 680.684   1
 -15   3  11 408.621 645.572   2
  15  -3 -11-949.229 788.836   1
  14   3 -11 1889.95 861.349   1
  14  -3 -11 235.785 612.569   1
 -14   3  11 450.659 593.371   2
  13   3 -11 3448.78 976.107   1
  13  -3 -11 3944.73 1064.02   1
 -13   3  11 5444.73 1069.09   2
  12  -3 -11 2334.73 854.410   1
  12   3 -11 3621.23 972.837   1
 -12   3  11 2839.92 812.165   2
 -11   3  11 2325.84 697.081   2
  11  -3 -11 3631.74 957.452   1
 -10   3  11 2351.28 622.514   2
  10  -3 -11 1327.58 626.176   1
   9  -3 -11 2289.20 721.074   1
  -9   3  11 2486.42 640.184   2
   8  -3 -11 5144.31 954.788   1
  -8   3  11 6359.95 894.302   2
  -7   3  11 7554.25 954.978   2
   7  -3 -11 5277.71 943.271   1
   6  -3 -11 16007.9 1495.18   1
  -6   3  11 16043.5 1355.23   2
  -5   3  11 27501.4 1701.70   2
  -4   3  11 32717.6 1867.44   2
   3  -3 -11 6324.53 574.033   3
  -3   3  11 6080.97 820.813   2
  -2   3  11 1750.21 440.358   2
   2  -3 -11 1441.82 295.260   3
  -1   3  11 4009.48 695.491   2
   1  -3 -11 3807.01 472.920   3
   0   3  11 2410.53 544.840   2
   0  -3 -11 1982.39 374.086   3
   0   3 -11 1893.07 537.841   3
  -1  -3 -11 427.502 321.894   3
  -1   3 -11 1017.25 436.767   3
  -2  -3 -11 4538.42 595.516   3
  -2   3 -11 4118.10 698.288   3
  -3  -3 -11 862.731 330.555   3
  -3   3 -11 853.517 406.594   3
  -4  -3 -11 696.059 381.425   3
  -4   3 -11 351.735 377.292   3
  -5  -3 -11 4793.94 784.038   3
  -5   3 -11 5288.37 813.631   3
  -6   3 -11 11255.9 1111.45   3
  -6  -3 -11 12697.2 1229.77   3
  -7  -3 -11 1046.53 413.325   3
  -7   3 -11 984.806 438.283   3
  -8  -3 -11 3579.45 778.546   3
  -8   3 -11 3113.49 655.422   3
  -9  -3 -11 7400.12 1106.76   3
  -9   3 -11 4680.59 841.587   3
 -10  -3 -11 1962.35 636.640   3
 -10   3 -11 2864.10 757.044   3
 -11   3 -11 4984.00 918.893   3
 -11  -3 -11 4235.43 960.597   3
 -12   3 -11 9501.00 1275.20   3
 -12  -3 -11 9230.19 1337.60   3
 -13   3 -11 9674.93 1340.15   3
 -13  -3 -11 10451.4 1513.76   3
 -14   3 -11 9226.25 1369.33   3
 -14  -3 -11 8016.14 1364.76   3
 -15  -3 -11 3122.99 952.912   3
 -16  -3 -11 978.659 733.043   3
 -17   4  11-582.899 722.244   2
 -16   4  11 752.276 701.180   2
  15   4 -11 157.038 595.862   1
 -15   4  11 580.926 729.948   2
  14   4 -11 1134.08 746.263   1
 -14   4  11 1283.14 711.165   2
 -13   4  11-812.206 671.771   2
 -12   4  11-78.8201 520.175   2
 -11   4  11 775.981 527.481   2
 -10   4  11 2282.25 702.566   2
  -9   4  11 2763.35 715.493   2
  -8   4  11 7935.95 1064.40   2
  -7   4  11 9634.82 1133.93   2
  -6   4  11 3062.69 662.035   2
  -5   4  11 5559.41 816.841   2
  -4   4  11 39663.9 2152.26   2
   4  -4 -11 43676.6 1362.75   3
   3  -4 -11 8617.52 593.947   3
  -3   4  11 7979.58 953.875   2
  -2   4  11 13924.4 1239.68   2
   2  -4 -11 14666.6 788.932   3
  -1   4  11 20998.6 1549.89   2
   1  -4 -11 24121.9 1053.35   3
   0  -4 -11 20908.7 1035.20   3
   0   4  11 20226.7 1486.12   2
   0   4 -11 18961.1 1395.17   3
  -1  -4 -11 10975.2 796.289   3
   1   4  11 10794.8 1109.44   2
  -1   4 -11 10293.3 1051.39   3
  -2   4 -11 18742.6 1379.24   3
  -2  -4 -11 17935.8 1132.33   3
  -3   4 -11 16355.2 1337.75   3
  -3  -4 -11 18880.9 1246.76   3
  -4   4 -11 18661.8 1409.81   3
  -4  -4 -11 18783.3 1341.60   3
  -5  -4 -11 4010.20 697.682   3
  -5   4 -11 3501.45 700.819   3
  -6  -4 -11 1578.53 507.641   3
  -6   4 -11 2164.18 599.995   3
  -7  -4 -11 443.343 412.917   3
  -7   4 -11 1233.25 497.119   3
  -8   4 -11 819.622 572.367   3
  -8  -4 -11-438.696 552.371   3
  -9   4 -11 150.748 421.883   3
  -9  -4 -11-202.433 506.682   3
 -10   4 -11 415.603 462.867   3
 -10  -4 -11 189.065 506.358   3
 -11   4 -11 2129.46 675.122   3
 -11  -4 -11 2031.81 699.407   3
 -12   4 -11 7800.85 1222.39   3
 -12  -4 -11 7368.77 1202.17   3
 -13   4 -11 7277.34 1182.59   3
 -13  -4 -11 6583.71 1190.58   3
 -14  -4 -11 13065.3 1637.38   3
 -15  -4 -11 17325.3 1906.22   3
 -17   5  11 42.1415 658.329   2
 -16   5  11 1572.84 846.908   2
 -15   5  11 1238.01 892.909   2
 -14   5  11 2632.25 887.565   2
 -13   5  11 2475.62 874.027   2
 -12   5  11 795.811 790.499   2
 -11   5  11 970.621 642.666   2
 -10   5  11 3132.43 883.118   2
  -9   5  11 1998.29 735.361   2
  -8   5  11 3820.32 864.617   2
  -7   5  11 1566.65 558.850   2
  -6   5  11 716.672 518.539   2
  -5   5  11 235.789 360.023   2
  -4   5  11 4049.97 766.497   2
  -3   5  11 195.642 360.745   2
  -2   5  11 1890.45 532.845   2
  -1   5  11 143.699 329.032   2
   1   5 -11-146.414 446.462   3
   0   5  11 717.545 459.603   2
   0   5 -11-120.037 365.749   3
   1   5  11 252.784 362.992   2
  -1   5 -11-528.951 450.400   3
  -2   5 -11 3102.82 665.546   3
  -3   5 -11 5501.12 837.621   3
  -4   5 -11 11498.8 1157.55   3
  -5   5 -11 9957.50 1110.02   3
  -6   5 -11 14252.0 1323.39   3
  -7   5 -11 18904.2 1550.49   3
  -8   5 -11 24955.1 1815.57   3
  -9   5 -11 28945.6 2037.07   3
 -10   5 -11 31070.9 2194.36   3
 -11   5 -11 28293.6 2152.53   3
 -12   5 -11 23463.3 2035.87   3
 -15   6  11 7858.22 1545.38   2
 -14   6  11 9264.39 1486.26   2
 -13   6  11 11444.1 1601.44   2
 -12   6  11 22920.9 2142.37   2
 -11   6  11 20555.8 2007.63   2
 -10   6  11 17426.4 1785.90   2
  -9   6  11 14489.4 1554.26   2
  -8   6  11 9764.36 1211.25   2
  -7   6  11 15148.6 1548.70   2
  -6   6  11 9058.36 1185.38   2
  -5   6  11 4875.48 861.879   2
  -4   6  11 8965.31 1140.85   2
  -3   6  11 509.356 408.399   2
  -2   6  11 3594.02 761.991   2
  -1   6  11 1861.57 611.402   2
   1   6 -11 1417.14 568.775   3
   0   6  11 6678.17 981.911   2
   0   6 -11 8133.21 1014.22   3
   1   6  11 10945.6 1199.49   2
  -1   6 -11 10762.2 1160.13   3
   2   6  11 19935.6 1610.02   2
  -2   6 -11 19211.2 1500.74   3
  -3   6 -11 22044.5 1605.12   3
  -4   6 -11 21887.8 1629.02   3
  -5   6 -11 26925.5 1826.76   3
  -6   6 -11 39575.7 2279.68   3
  -7   6 -11 33943.1 2145.92   3
  -8   6 -11 26685.1 1939.91   3
  -9   6 -11 22897.7 1856.57   3
 -10   6 -11 16241.6 1625.34   3
 -11   6 -11 9716.86 1297.01   3
 -13   7  11-258.598 638.621   2
 -12   7  11 242.477 589.500   2
 -11   7  11 1546.77 770.274   2
 -10   7  11 6423.97 1180.67   2
  -9   7  11 9028.75 1366.11   2
  -8   7  11 12784.7 1520.19   2
  -7   7  11 23369.4 1978.11   2
  -6   7  11 45636.4 2727.07   2
  -5   7  11 42744.9 2563.29   2
  -4   7  11 48889.1 2702.28   2
  -3   7  11 58975.4 2953.00   2
  -2   7  11 46696.2 2609.00   2
  -1   7  11 53459.4 2802.60   2
   1   7 -11 59463.0 2821.17   3
   0   7  11 53807.9 2806.47   2
   0   7 -11 61355.5 2813.44   3
   1   7  11 52586.5 2738.35   2
  -1   7 -11 54197.0 2645.59   3
   2   7  11 49737.7 2687.71   2
  -2   7 -11 50203.1 2505.39   3
  -3   7 -11 39414.5 2219.45   3
  -4   7 -11 22255.1 1683.06   3
  -5   7 -11 12673.9 1319.95   3
  -6   7 -11 6261.82 953.394   3
  -7   7 -11 4650.00 891.401   3
  -8   7 -11 1604.67 606.899   3
  -9   7 -11 1000.08 641.605   3
 -10   7 -11-161.710 530.642   3
 -10   8  11 12310.7 1623.97   2
  -9   8  11 15433.4 1760.03   2
  -8   8  11 12557.3 1535.63   2
  -7   8  11 9667.90 1351.27   2
  -6   8  11 8881.46 1279.26   2
  -5   8  11 3047.18 892.029   2
  -4   8  11 828.533 538.470   2
  -3   8  11 189.160 480.415   2
   2   8 -11 1508.43 695.669   3
  -2   8  11 840.115 582.167   2
  -1   8  11-781.756 568.883   2
   1   8 -11 45.3652 501.550   3
   0   8  11 809.337 502.304   2
   0   8 -11 1785.74 596.649   3
   1   8  11 1691.18 544.914   2
  -1   8 -11 2290.90 684.495   3
   2   8  11 3877.76 840.224   2
  -2   8 -11 4288.32 808.743   3
  -3   8 -11 5339.32 893.734   3
  -4   8 -11 11471.4 1259.88   3
  -5   8 -11 14254.9 1480.39   3
  -6   8 -11 5544.42 1011.92   3
  -7   8 -11 9881.59 1268.79   3
  -8   8 -11 10395.1 1385.87   3
  -7   9  11 906.485 599.616   2
  -6   9  11 398.834 415.536   2
  -5   9  11 1845.25 670.100   2
  -4   9  11 2079.92 753.634   2
   3   9 -11 437.560 513.853   3
  -3   9  11 1339.15 620.530   2
   2   9 -11 3510.75 885.923   3
  -2   9  11 4005.36 950.858   2
  -1   9  11 3256.14 886.397   2
   1   9 -11 3217.78 826.922   3
   0   9  11 1625.06 659.683   2
   0   9 -11 296.241 540.434   3
   1   9  11 1378.67 708.627   2
  -1   9 -11 1427.89 661.689   3
   2   9  11 562.003 541.212   2
  -2   9 -11 514.527 502.972   3
   3   9  11-173.465 566.099   2
  -3   9 -11 1566.50 651.219   3
  -4   9 -11 510.561 503.665   3
  -5   9 -11 400.967 542.857   3
  -6   9 -11 1015.96 608.470   3
   3  10 -11 1823.19 792.733   3
   2  10 -11 327.757 576.427   3
   1  10 -11 118.564 524.998   3
   0  10 -11-193.458 532.957   3
  -1  10 -11-121.280 537.327   3
  16   0 -12 14888.3 1990.38   1
  15   0 -12 34329.7 2848.32   1
  14   0 -12 28393.7 2574.57   1
  13   0 -12 34180.6 2789.13   1
  12   0 -12 15129.7 1858.10   1
  11   0 -12 17219.1 1954.00   1
  10   0 -12 10579.1 1545.34   1
  -9   0  12 8997.70 880.075   2
   9   0 -12 9473.68 1447.71   1
  -8   0  12 11492.3 994.583   2
   8   0 -12 11095.3 1462.27   1
  -7   0  12 15950.5 1179.55   2
   7   0 -12 17931.4 1823.89   1
  -6   0  12 8679.55 841.448   2
   6   0 -12 6249.22 1095.01   1
  -5   0  12 15477.5 1111.28   2
   5   0 -12 16251.6 1679.05   1
   4   0 -12 802.795 429.341   1
   3   0 -12 264.776 363.551   1
   2   0 -12 599.269 400.831   1
   2   0 -12 351.295 252.635   3
   1   0 -12 710.753 351.678   1
   1   0 -12 920.049 358.575   3
   0   0 -12 671.626 328.941   3
   0   0 -12-191.715 361.925   1
  -1   0 -12 2316.48 476.370   3
  -1   0 -12 2215.42 424.590   1
  -2   0 -12 356.445 312.538   3
  -2   0 -12 563.587 196.109   1
  -3   0 -12 3544.19 605.928   3
  -4   0 -12 11850.4 1069.28   3
  -5   0 -12 4928.42 734.275   3
  -6   0 -12 7535.95 920.730   3
  -7   0 -12 493.701 379.918   3
  -8   0 -12 2175.96 535.360   3
  -9   0 -12 1020.11 529.836   3
 -10   0 -12 313.278 475.722   3
 -11   0 -12 275.821 553.373   3
 -12   0 -12 494.071 632.424   3
 -13   0 -12 795.385 609.533   3
 -14   0 -12 912.684 589.938   3
  16   1 -12 2087.57 847.999   1
  16  -1 -12 2609.14 999.248   1
  15  -1 -12 1561.61 767.442   1
  15   1 -12 317.274 681.586   1
  14  -1 -12 1344.52 670.363   1
  14   1 -12 1511.29 775.429   1
  13  -1 -12 7875.60 1362.68   1
  13   1 -12 4877.54 1010.39   1
  12  -1 -12 11551.6 1617.42   1
  12   1 -12 9819.41 1478.88   1
  11  -1 -12 11149.7 1571.85   1
  11   1 -12 13075.7 1667.68   1
 -11   1  12 12002.3 1242.63   2
  10  -1 -12 14897.7 1750.87   1
  10   1 -12 15427.0 1790.93   1
 -10   1  12 15594.0 1341.36   2
   9   1 -12 14635.5 1674.43   1
   9  -1 -12 17728.7 1882.68   1
  -9   1  12 17654.6 1350.75   2
   8   1 -12 18425.2 1848.36   1
   8  -1 -12 22297.8 2041.09   1
  -8   1  12 21122.3 1424.37   2
  -7   1  12 20228.3 1387.35   2
   7   1 -12 20976.4 1957.63   1
   7  -1 -12 23462.1 2060.32   1
  -6   1  12 11759.4 1057.31   2
   6  -1 -12 11128.5 1378.11   1
   6   1 -12 12392.2 1477.84   1
  -5   1  12 29011.2 1634.44   2
   5   1 -12 28297.5 2169.43   1
   5  -1 -12 27209.7 2078.39   1
  -4   1  12 12384.6 1045.19   2
   4   1 -12 11333.4 1346.33   1
   4  -1 -12 11291.5 1277.41   1
  -3   1  12 5574.63 716.092   2
   3  -1 -12 6259.83 869.488   1
   3   1 -12 7346.47 1079.54   1
   2   1 -12 8413.96 1057.77   1
   2  -1 -12 6118.68 807.208   1
   2  -1 -12 6128.36 691.604   3
   1  -1 -12 3958.61 607.121   3
   1   1 -12 3522.48 608.238   3
   1  -1 -12 3071.74 536.322   1
   0  -1 -12 878.181 359.496   3
   0   1 -12 612.789 384.478   3
   0  -1 -12 402.048 253.510   1
  -1  -1 -12 1214.92 400.181   3
  -1   1 -12 1130.60 415.605   3
  -1  -1 -12 1540.56 316.443   1
  -2  -1 -12 692.186 376.653   3
  -2   1 -12-529.013 374.100   3
  -3   1 -12 1117.98 306.707   1
  -3  -1 -12 1288.30 438.314   3
  -3   1 -12 513.317 354.885   3
  -4  -1 -12 3371.16 589.990   3
  -4   1 -12 3474.72 626.542   3
  -5  -1 -12 3160.82 592.836   3
  -5   1 -12 4450.50 708.886   3
  -6  -1 -12 2211.88 563.079   3
  -6   1 -12 3237.19 670.474   3
  -7  -1 -12 4104.98 765.470   3
  -7   1 -12 4851.53 804.997   3
  -8  -1 -12 6253.46 967.590   3
  -8   1 -12 4593.01 803.228   3
  -9  -1 -12 4404.54 898.113   3
  -9   1 -12 1631.91 540.200   3
 -10  -1 -12 3314.59 851.194   3
 -10   1 -12 2177.78 633.622   3
 -11  -1 -12 2644.11 861.404   3
 -11   1 -12 1890.53 685.625   3
 -12  -1 -12-352.611 659.739   3
 -12   1 -12 1005.24 647.777   3
 -13  -1 -12-478.490 657.889   3
 -13   1 -12 43.0777 508.766   3
 -14  -1 -12-1216.80 834.688   3
 -14   1 -12 576.331 563.124   3
 -15  -1 -12 424.395 579.870   3
  15   2 -12 736.470 692.782   1
  15  -2 -12 355.176 723.895   1
  14   2 -12 1942.59 791.956   1
  14  -2 -12 2420.88 935.592   1
  13   2 -12 2157.80 863.355   1
  13  -2 -12 1302.25 700.208   1
  12   2 -12 2051.62 835.627   1
  12  -2 -12 2248.53 880.856   1
 -12   2  12 1422.13 604.900   2
  11   2 -12 2793.50 894.201   1
  11  -2 -12 1469.29 616.636   1
 -11   2  12 2846.43 752.532   2
  10   2 -12 8716.67 1350.34   1
  10  -2 -12 11422.9 1546.97   1
 -10   2  12 9129.98 1103.64   2
   9   2 -12 18536.3 1839.06   1
   9  -2 -12 16796.9 1782.47   1
  -9   2  12 17923.3 1481.87   2
   8  -2 -12 31877.5 2357.73   1
  -8   2  12 31675.9 1900.28   2
   7  -2 -12 37891.5 2496.94   1
  -7   2  12 36829.5 2009.24   2
  -6   2  12 73952.7 2859.77   2
   6  -2 -12 71470.5 3343.96   1
  -5   2  12 88451.1 3113.09   2
   5  -2 -12 86145.2 3478.82   1
  -4   2  12 38081.9 1991.35   2
   4  -2 -12 38656.1 2168.05   1
  -3   2  12 62694.7 2555.40   2
   3  -2 -12 59621.9 2050.09   3
   3  -2 -12 59657.5 2551.62   1
  -2   2  12 65825.0 2646.95   2
   2  -2 -12 64289.3 2135.39   3
   2  -2 -12 63487.6 2448.26   1
   1  -2 -12 58509.0 2034.93   3
   1   2 -12 63595.7 2535.53   3
   0  -2 -12 60805.4 2114.29   3
   0   2 -12 64100.1 2560.13   3
  -1  -2 -12 47399.8 1899.80   3
  -1   2 -12 48549.9 2188.66   3
  -2  -2 -12 37031.1 1728.53   3
  -2   2 -12 34719.4 1855.18   3
  -3  -2 -12 20106.7 1330.34   3
  -3   2 -12 20229.7 1442.43   3
  -4  -2 -12 1118.83 448.588   3
  -4   2 -12 1548.86 512.916   3
  -5  -2 -12-677.712 487.771   3
  -5   2 -12 1092.06 467.090   3
  -6  -2 -12 993.111 473.462   3
  -6   2 -12 1539.44 535.820   3
  -7  -2 -12 990.282 583.626   3
  -7   2 -12 160.381 423.379   3
  -8  -2 -12 587.685 518.996   3
  -8   2 -12 789.050 481.078   3
  -9  -2 -12 5533.49 976.660   3
  -9   2 -12 4704.71 856.726   3
 -10   2 -12 15882.9 1531.93   3
 -10  -2 -12 16301.4 1667.83   3
 -11  -2 -12 27928.2 2306.00   3
 -11   2 -12 26495.1 2095.11   3
 -12  -2 -12 32851.3 2562.92   3
 -12   2 -12 32736.5 2377.24   3
 -13  -2 -12 36803.4 2793.72   3
 -13   2 -12 37365.1 2637.84   3
 -14  -2 -12 30014.1 2577.74   3
 -15  -2 -12 20714.4 2164.09   3
  15   3 -12 9590.66 1602.97   1
  15  -3 -12 8518.36 1544.92   1
  14   3 -12 7985.01 1377.30   1
  14  -3 -12 11392.1 1750.92   1
 -14   3  12 9668.26 1481.51   2
  13   3 -12 4866.71 1051.81   1
 -13   3  12 5146.56 1032.49   2
  13  -3 -12 6990.40 1355.17   1
  12   3 -12 8801.31 1421.28   1
  12  -3 -12 8181.13 1431.65   1
 -12   3  12 9539.40 1292.37   2
  11  -3 -12 11816.4 1638.20   1
 -11   3  12 10088.8 1293.72   2
  10  -3 -12 7765.89 1282.14   1
 -10   3  12 8257.11 1108.97   2
   9  -3 -12 7493.29 1258.66   1
  -9   3  12 6992.20 1004.96   2
   8  -3 -12 3340.93 860.737   1
  -8   3  12 1824.20 555.646   2
  -7   3  12 517.960 361.746   2
   7  -3 -12 347.544 394.211   1
  -6   3  12 3478.94 694.563   2
  -5   3  12 951.976 444.608   2
   4  -3 -12 3689.30 454.494   3
  -4   3  12 3689.37 713.633   2
  -3   3  12 11364.0 1140.76   2
   3  -3 -12 8331.79 678.867   3
  -2   3  12 27694.0 1762.54   2
   2  -3 -12 27820.4 1278.37   3
  -1   3  12 37520.5 2070.88   2
   1  -3 -12 43013.5 1631.15   3
   1   3 -12 41540.0 2117.87   3
   0  -3 -12 57153.7 1972.23   3
   0   3 -12 52145.8 2401.49   3
  -1  -3 -12 70666.0 2316.56   3
  -1   3 -12 69418.8 2756.77   3
  -2  -3 -12 73953.0 2494.79   3
  -2   3 -12 76462.3 2876.54   3
  -3  -3 -12 103780. 3174.57   3
  -3   3 -12 98018.7 3366.05   3
  -4  -3 -12 83856.1 2937.95   3
  -4   3 -12 78885.4 3015.60   3
  -5   3 -12 93084.2 3364.94   3
  -5  -3 -12 104505. 3487.38   3
  -6   3 -12 89811.2 3320.76   3
  -6  -3 -12 93405.0 3452.48   3
  -7   3 -12 70195.8 2976.80   3
  -7  -3 -12 80049.7 3339.31   3
  -8   3 -12 65219.4 2944.88   3
  -8  -3 -12 73755.4 3366.21   3
  -9   3 -12 79683.7 3391.72   3
  -9  -3 -12 79149.3 3647.04   3
 -10   3 -12 54030.5 2883.74   3
 -10  -3 -12 59171.7 3275.60   3
 -11   3 -12 38382.4 2473.71   3
 -11  -3 -12 44449.8 2905.57   3
 -12  -3 -12 34756.6 2597.44   3
 -12   3 -12 30917.3 2342.78   3
 -13  -3 -12 16946.2 1900.22   3
 -13   3 -12 16397.1 1807.20   3
 -14  -3 -12 9352.28 1432.64   3
 -15  -3 -12 6959.14 1359.32   3
 -15   4  12-828.133 774.202   2
  14   4 -12 345.546 633.930   1
 -14   4  12 495.187 503.650   2
 -13   4  12-522.514 591.463   2
 -12   4  12-248.833 453.665   2
 -11   4  12 2379.15 678.464   2
 -10   4  12 1296.20 541.482   2
  -9   4  12 2178.96 672.934   2
  -8   4  12 2869.74 693.654   2
  -7   4  12 4593.19 853.026   2
  -6   4  12 439.235 380.697   2
  -5   4  12 6670.39 952.827   2
  -4   4  12 21597.0 1613.94   2
  -3   4  12 32365.9 2026.48   2
  -2   4  12 20132.5 1575.43   2
  -1   4  12 14548.2 1345.99   2
   1   4 -12 15974.1 1357.06   3
   0   4  12 7264.63 996.126   2
   0   4 -12 6799.40 936.118   3
  -1   4 -12 12027.4 1198.36   3
  -2   4 -12 8956.39 1022.89   3
  -2  -4 -12 9861.32 897.746   3
  -3   4 -12 11671.1 1161.06   3
  -3  -4 -12 11261.5 1018.66   3
  -4   4 -12 12990.1 1230.81   3
  -4  -4 -12 12959.0 1145.09   3
  -5  -4 -12 8580.14 988.735   3
  -5   4 -12 10994.5 1168.64   3
  -6  -4 -12 3279.73 682.219   3
  -6   4 -12 5817.54 916.290   3
  -7  -4 -12 104.815 398.390   3
  -7   4 -12 457.457 454.041   3
  -8  -4 -12 648.594 436.484   3
  -8   4 -12 877.122 545.612   3
  -9   4 -12 331.694 410.628   3
  -9  -4 -12 156.695 479.833   3
 -10   4 -12-962.876 650.846   3
 -10  -4 -12-120.848 491.732   3
 -11   4 -12 615.817 591.599   3
 -11  -4 -12 278.600 550.123   3
 -12   4 -12 407.181 497.109   3
 -16   5  12 721.197 692.187   2
 -15   5  12 3848.75 1150.68   2
 -14   5  12 987.138 724.196   2
 -13   5  12 741.346 640.331   2
 -12   5  12 316.064 597.244   2
 -11   5  12 1333.32 690.040   2
 -10   5  12 480.205 541.002   2
  -9   5  12 1579.61 703.196   2
  -8   5  12 2348.38 705.736   2
  -7   5  12 3194.92 825.961   2
  -6   5  12 922.536 494.734   2
  -5   5  12 7341.90 1009.34   2
  -4   5  12 11303.8 1259.79   2
  -3   5  12 12529.5 1284.34   2
  -2   5  12 16502.0 1504.28   2
  -1   5  12 15290.9 1431.66   2
   1   5 -12 15604.3 1372.61   3
   0   5  12 18209.1 1553.40   2
   0   5 -12 18370.5 1508.97   3
   1   5  12 15457.3 1415.59   2
  -1   5 -12 15118.1 1335.26   3
  -2   5 -12 13998.0 1297.42   3
  -3   5 -12 13700.9 1301.46   3
  -4   5 -12 5309.87 848.263   3
  -5   5 -12 5901.15 898.339   3
  -6   5 -12 5942.95 930.019   3
  -7   5 -12 4457.66 875.803   3
  -8   5 -12 4782.97 922.799   3
  -9   5 -12 3526.24 761.426   3
 -10   5 -12 3115.66 819.308   3
 -11   5 -12 1126.12 649.741   3
 -14   6  12 4927.95 1198.00   2
 -13   6  12 9064.43 1525.83   2
 -12   6  12 9118.08 1443.31   2
 -11   6  12 21171.5 2095.04   2
 -10   6  12 21075.9 1981.26   2
  -9   6  12 13729.6 1601.54   2
  -8   6  12 17979.6 1778.59   2
  -7   6  12 15902.0 1611.44   2
  -6   6  12 10823.1 1322.81   2
  -5   6  12 16614.3 1561.21   2
  -4   6  12 9834.50 1236.56   2
  -3   6  12 21484.2 1763.60   2
  -2   6  12 12545.0 1392.69   2
  -1   6  12 2014.71 688.918   2
   1   6 -12 2180.88 644.339   3
   0   6  12 526.225 495.008   2
   0   6 -12 1483.26 631.081   3
   1   6  12 458.158 421.339   2
  -1   6 -12 1346.40 574.448   3
  -2   6 -12-294.995 341.433   3
  -3   6 -12 1077.22 588.276   3
  -4   6 -12 624.809 411.353   3
  -5   6 -12 1366.15 613.297   3
  -6   6 -12 1785.00 593.167   3
  -7   6 -12 2539.26 728.619   3
  -8   6 -12 4071.42 844.087   3
  -9   6 -12 3017.15 815.161   3
 -10   6 -12 4838.06 971.633   3
 -12   7  12 106.465 554.226   2
 -11   7  12-45.2333 582.125   2
 -10   7  12 1048.38 775.221   2
  -9   7  12 1712.08 751.226   2
  -8   7  12 887.697 545.316   2
  -7   7  12 5844.09 1071.82   2
  -6   7  12 2009.24 742.585   2
  -5   7  12 2349.51 790.281   2
  -4   7  12 3542.63 801.451   2
  -3   7  12 5371.04 938.333   2
   2   7 -12 4157.28 822.583   3
  -2   7  12 2757.35 713.934   2
  -1   7  12 3056.85 766.689   2
   1   7 -12 4337.79 903.136   3
   0   7  12 3737.36 829.464   2
   0   7 -12 3864.08 790.166   3
   1   7  12 1258.09 592.885   2
  -1   7 -12 2136.57 651.387   3
   2   7  12 1375.01 634.377   2
  -2   7 -12 1573.07 622.608   3
  -3   7 -12 2083.06 599.710   3
  -4   7 -12 4016.41 837.947   3
  -5   7 -12 7068.02 1049.84   3
  -6   7 -12 2366.12 768.304   3
  -7   7 -12 2596.40 732.151   3
  -8   7 -12 1036.52 607.572   3
  -9   8  12 327.343 455.293   2
  -8   8  12 730.842 575.662   2
  -7   8  12 348.951 551.854   2
  -6   8  12-207.518 505.104   2
  -5   8  12 1578.60 667.613   2
  -4   8  12 415.781 518.287   2
  -3   8  12 46.4862 430.791   2
   2   8 -12 173.723 487.372   3
  -2   8  12 1173.27 624.615   2
  -1   8  12-83.6042 458.652   2
   1   8 -12 710.594 559.161   3
   0   8  12 267.262 456.939   2
   0   8 -12 985.414 581.362   3
   1   8  12-119.214 416.612   2
  -1   8 -12 573.539 502.805   3
   2   8  12 106.911 372.727   2
  -2   8 -12 1106.19 628.495   3
  -3   8 -12 203.983 402.330   3
  -4   8 -12 1211.10 582.425   3
  -5   8 -12 1056.49 641.518   3
  -6   8 -12 234.996 502.035   3
   3   9 -12 1200.45 662.456   3
  -3   9  12 2656.36 882.988   2
  -2   9  12 1465.54 655.613   2
   2   9 -12 1257.62 643.548   3
  -1   9  12 2183.26 763.174   2
   1   9 -12 941.659 575.213   3
   0   9  12 727.695 651.108   2
   0   9 -12 819.942 605.941   3
   1   9  12-534.774 539.072   2
  -1   9 -12-160.351 569.826   3
  -2   9 -12 212.362 462.819   3
  -3   9 -12-47.8542 444.279   3
  15   0 -13 1440.69 835.943   1
  14   0 -13 735.925 720.221   1
  13   0 -13-534.381 754.061   1
  12   0 -13 367.637 702.621   1
  11   0 -13 639.281 652.317   1
  10   0 -13-73.0162 614.362   1
   9   0 -13-997.750 762.056   1
   8   0 -13-1.02011 498.469   1
  -7   0  13 258.622 288.394   2
   7   0 -13-269.312 609.826   1
  -6   0  13 339.637 314.421   2
   6   0 -13-819.308 677.413   1
   5   0 -13-933.478 571.518   1
   4   0 -13-326.275 485.624   1
   3   0 -13-324.285 538.419   1
   2   0 -13-312.452 310.852   3
   2   0 -13-563.530 556.175   1
   1   0 -13-146.538 295.974   3
   1   0 -13-208.710 425.770   1
   0   0 -13 637.896 356.178   3
   0   0 -13-18.5779 238.093   1
  -1   0 -13-179.190 280.891   3
  -1   0 -13 14.8553 203.550   1
  -2   0 -13-676.286 402.868   3
  -3   0 -13 642.374 429.861   3
  -4   0 -13 359.196 379.873   3
  -5   0 -13 666.684 448.236   3
  -6   0 -13-332.410 454.186   3
  -7   0 -13-306.770 361.602   3
  -8   0 -13 205.394 474.973   3
  -9   0 -13 878.928 554.619   3
 -10   0 -13 768.744 646.479   3
 -11   0 -13 1310.49 739.859   3
 -12   0 -13-496.723 515.051   3
 -13   0 -13 981.076 710.033   3
  15   1 -13 3586.16 1029.21   1
  15  -1 -13 4770.38 1224.94   1
  14  -1 -13 1854.54 808.599   1
  14   1 -13 2308.26 871.256   1
  13  -1 -13 6280.89 1276.87   1
  13   1 -13 2380.12 835.419   1
  12  -1 -13 7247.41 1348.80   1
  12   1 -13 9179.15 1446.58   1
  11  -1 -13 6627.42 1284.78   1
  11   1 -13 7787.87 1363.40   1
  10  -1 -13 4023.18 1065.52   1
  10   1 -13 2427.02 811.041   1
   9  -1 -13 3214.09 926.243   1
   9   1 -13 2247.01 809.961   1
  -9   1  13 1774.43 490.434   2
   8  -1 -13 1669.38 705.493   1
   8   1 -13 1602.30 726.589   1
  -8   1  13 1017.63 415.175   2
  -7   1  13 3362.38 613.510   2
   7   1 -13 5296.80 1088.09   1
   7  -1 -13 4291.86 926.833   1
  -6   1  13 577.135 340.825   2
   6   1 -13 607.535 469.652   1
   6  -1 -13 612.641 610.399   1
  -5   1  13 8808.33 972.248   2
   5   1 -13 7351.26 1167.05   1
   5  -1 -13 8820.52 1224.40   1
   4   1 -13 2365.48 675.506   1
  -4   1  13 3591.38 642.834   2
   3   1 -13-201.438 361.706   1
   3  -1 -13 208.200 316.156   1
   3  -1 -13 43.7201 267.093   3
   2   1 -13 2265.18 621.524   1
   2  -1 -13 1580.48 422.239   3
   2  -1 -13 2479.80 552.269   1
   2   1 -13 1672.58 486.295   3
   1   1 -13 5825.25 917.000   1
   1  -1 -13 4816.75 658.046   3
   1   1 -13 5262.55 766.489   3
   1  -1 -13 4787.63 659.518   1
   0   1 -13 14447.7 1284.11   1
   0  -1 -13 13066.6 1058.76   3
   0   1 -13 15156.4 1222.78   3
   0  -1 -13 13308.9 966.904   1
  -1  -1 -13 11883.2 1014.86   3
  -1   1 -13 14487.2 1210.39   1
  -1   1 -13 14147.7 1192.32   3
  -2  -1 -13 14135.0 1155.61   3
  -2   1 -13 14815.1 1223.41   3
  -3  -1 -13 9908.67 977.126   3
  -3   1 -13 9949.44 1025.20   3
  -4  -1 -13 14325.7 1200.65   3
  -4   1 -13 14120.1 1252.38   3
  -5  -1 -13 23139.8 1573.98   3
  -5   1 -13 19921.5 1491.01   3
  -6  -1 -13 30105.5 1888.63   3
  -6   1 -13 26248.8 1779.81   3
  -7  -1 -13 21115.8 1633.10   3
  -7   1 -13 21393.2 1650.31   3
  -8   1 -13 26238.5 1900.78   3
  -8  -1 -13 30437.4 2061.30   3
  -9   1 -13 34122.6 2253.65   3
  -9  -1 -13 34811.5 2366.30   3
 -10  -1 -13 27546.5 2172.74   3
 -10   1 -13 27343.5 2079.30   3
 -11  -1 -13 23341.1 2079.60   3
 -11   1 -13 22360.3 1988.04   3
 -12  -1 -13 19818.0 2015.08   3
 -12   1 -13 19136.2 1905.64   3
 -13  -1 -13 20069.7 2131.08   3
 -13   1 -13 20512.5 2049.17   3
 -14  -1 -13 15608.4 1937.33   3
  15   2 -13-333.463 616.076   1
  15  -2 -13 1149.26 714.926   1
  14   2 -13 1677.86 832.462   1
  14  -2 -13 2061.84 932.757   1
  13   2 -13 1850.95 807.927   1
  13  -2 -13 1500.34 849.876   1
  12   2 -13 708.015 745.476   1
  12  -2 -13 6.81954 484.128   1
  11   2 -13 1754.58 709.230   1
  11  -2 -13 1880.56 737.510   1
 -11   2  13 2152.10 659.459   2
  10   2 -13 1508.60 670.885   1
  10  -2 -13 3460.00 963.752   1
 -10   2  13 2976.45 703.984   2
   9   2 -13 2697.46 862.762   1
   9  -2 -13 2558.84 854.697   1
  -9   2  13 2363.42 638.138   2
   8   2 -13 5255.46 1008.18   1
   8  -2 -13 4651.02 1021.41   1
  -8   2  13 4103.72 767.638   2
   7   2 -13 4803.92 976.308   1
   7  -2 -13 3488.76 864.911   1
  -7   2  13 5850.34 852.593   2
  -6   2  13 14696.7 1300.20   2
   6  -2 -13 14052.4 1492.15   1
  -5   2  13 13086.9 1246.08   2
   5  -2 -13 14205.3 1429.21   1
  -4   2  13 27515.9 1743.97   2
   4  -2 -13 25789.1 1384.69   3
   4  -2 -13 26626.6 1857.95   1
  -3   2  13 31244.3 1883.16   2
   3  -2 -13 31520.7 1527.50   3
   3  -2 -13 32598.1 1899.09   1
   2  -2 -13 30100.1 1503.11   3
   2   2 -13 32708.8 1898.90   3
   2  -2 -13 31062.2 1710.30   1
   1  -2 -13 29989.2 1504.11   3
   1   2 -13 29135.8 1778.68   3
   0  -2 -13 19961.0 1251.62   3
   0   2 -13 23080.0 1590.90   3
  -1  -2 -13 24431.8 1411.38   3
  -1   2 -13 23911.5 1607.59   3
  -2  -2 -13 24435.8 1466.17   3
  -2   2 -13 25665.6 1656.06   3
  -3  -2 -13 25867.3 1571.33   3
  -3   2 -13 24707.8 1654.69   3
  -4  -2 -13 31254.4 1798.07   3
  -4   2 -13 30694.8 1871.70   3
  -5  -2 -13 24685.2 1674.34   3
  -5   2 -13 25372.5 1719.29   3
  -6  -2 -13 16575.3 1455.32   3
  -6   2 -13 18959.1 1512.39   3
  -7   2 -13 14570.0 1373.71   3
  -7  -2 -13 17765.3 1576.16   3
  -8  -2 -13 11921.7 1334.13   3
  -8   2 -13 11450.2 1287.26   3
  -9  -2 -13 4946.73 995.070   3
  -9   2 -13 4734.77 873.500   3
 -10  -2 -13 2857.10 802.218   3
 -10   2 -13 2907.44 725.185   3
 -11  -2 -13 618.327 620.092   3
 -11   2 -13 1575.12 803.926   3
 -12  -2 -13-819.439 803.375   3
 -12   2 -13 703.995 663.629   3
 -13  -2 -13-1957.22 975.663   3
 -14  -2 -13-47.0081 632.677   3
  14   3 -13 2966.73 926.595   1
  14  -3 -13 3513.83 1135.06   1
  13   3 -13 589.226 484.620   1
  13  -3 -13 3389.45 1080.65   1
  12   3 -13 485.342 587.492   1
 -12   3  13 1888.50 680.441   2
  12  -3 -13 755.785 655.219   1
  11   3 -13 1130.30 606.114   1
  11  -3 -13 3051.06 995.106   1
 -11   3  13 2200.54 680.417   2
  10  -3 -13-155.282 587.521   1
 -10   3  13 1221.94 594.187   2
  -9   3  13 481.759 479.344   2
   9  -3 -13 896.222 647.326   1
   8  -3 -13 2724.86 754.876   1
  -8   3  13 1258.75 529.118   2
  -7   3  13 1515.61 552.296   2
  -6   3  13 280.818 345.851   2
  -5   3  13 5936.35 900.443   2
  -4   3  13 4780.03 828.370   2
   4  -3 -13 5187.92 557.833   3
  -3   3  13 10742.6 1191.54   2
   3  -3 -13 9835.92 807.570   3
  -2   3  13 15403.9 1378.72   2
   2  -3 -13 14703.4 981.455   3
   2   3 -13 14025.9 1310.39   3
   1  -3 -13 18787.2 1129.52   3
   1   3 -13 19331.3 1509.17   3
   0  -3 -13 21221.3 1254.25   3
   0   3 -13 21908.2 1589.55   3
  -1  -3 -13 24176.3 1372.39   3
  -1   3 -13 24064.0 1671.54   3
  -2  -3 -13 11983.3 1026.25   3
  -2   3 -13 10178.7 1097.72   3
  -3  -3 -13 7763.06 876.464   3
  -3   3 -13 7338.13 954.447   3
  -4  -3 -13 6594.18 843.967   3
  -4   3 -13 7725.70 968.670   3
  -5  -3 -13 7265.64 954.798   3
  -5   3 -13 6000.35 939.111   3
  -6  -3 -13 4558.16 801.148   3
  -6   3 -13 4836.29 858.516   3
  -7  -3 -13 3198.75 773.334   3
  -7   3 -13 1607.57 529.138   3
  -8  -3 -13 2514.29 702.061   3
  -8   3 -13 2843.00 746.536   3
  -9  -3 -13-293.554 532.614   3
  -9   3 -13-375.541 551.602   3
 -10  -3 -13 425.420 489.364   3
 -10   3 -13 171.099 398.342   3
 -11  -3 -13-80.2155 650.072   3
 -11   3 -13-450.752 666.644   3
 -12   3 -13 2200.99 791.531   3
 -12  -3 -13 1606.15 697.654   3
 -13  -3 -13 215.278 682.187   3
 -14  -3 -13-797.136 856.494   3
 -14   4  13 8023.16 1442.95   2
  13   4 -13 10032.1 1576.45   1
 -13   4  13 10086.5 1476.04   2
 -12   4  13 20253.2 2038.93   2
 -11   4  13 37767.0 2643.12   2
 -10   4  13 30179.0 2273.42   2
  -9   4  13 35004.9 2383.92   2
  -8   4  13 35347.4 2353.18   2
  -7   4  13 44962.5 2572.48   2
  -6   4  13 42322.1 2422.49   2
  -5   4  13 33373.5 2151.96   2
  -4   4  13 60565.4 2905.38   2
  -3   4  13 50385.4 2599.30   2
  -2   4  13 27073.7 1892.32   2
   2   4 -13 25115.5 1797.14   3
  -1   4  13 22791.3 1736.83   2
   1   4 -13 22657.7 1677.23   3
   0   4 -13 10219.0 1169.47   3
  -1   4 -13 4156.41 766.454   3
  -2   4 -13 3209.80 701.504   3
  -3   4 -13 760.501 434.153   3
  -4   4 -13 511.967 523.448   3
  -5   4 -13 702.012 498.638   3
  -6   4 -13 3793.03 780.807   3
  -7   4 -13 5564.17 949.563   3
  -8   4 -13 5768.03 963.425   3
  -9   4 -13 9555.15 1229.67   3
 -10   4 -13 14019.4 1538.15   3
 -11   4 -13 7758.00 1156.06   3
 -15   5  13 5569.23 1355.54   2
 -14   5  13 3979.05 1116.91   2
 -13   5  13 5170.86 1213.66   2
 -12   5  13 1913.59 887.929   2
 -11   5  13 1365.85 705.334   2
 -10   5  13 345.675 463.566   2
  -9   5  13 721.713 594.050   2
  -8   5  13 1356.65 578.734   2
  -7   5  13 706.711 448.262   2
  -6   5  13 9108.48 1210.99   2
  -5   5  13 8299.94 1113.82   2
  -4   5  13 19639.2 1680.34   2
  -3   5  13 25939.9 1954.80   2
  -2   5  13 24939.1 1886.00   2
   2   5 -13 23258.6 1756.34   3
  -1   5  13 32310.9 2151.23   2
   1   5 -13 33043.8 2124.78   3
   0   5  13 20049.0 1659.45   2
   0   5 -13 22595.2 1734.57   3
  -1   5 -13 29601.1 1989.05   3
  -2   5 -13 51644.1 2629.75   3
  -3   5 -13 33710.4 2113.08   3
  -4   5 -13 33618.0 2136.37   3
  -5   5 -13 16172.1 1506.87   3
  -6   5 -13 12904.6 1376.72   3
  -7   5 -13 8042.07 1139.76   3
  -8   5 -13 4053.24 877.883   3
  -9   5 -13 2682.02 735.460   3
 -10   5 -13 4642.16 998.708   3
 -13   6  13 4477.27 1046.92   2
 -12   6  13 3939.57 1044.30   2
 -11   6  13 2087.59 880.786   2
 -10   6  13 1913.64 701.312   2
  -9   6  13 2856.69 861.149   2
  -8   6  13 2954.33 793.736   2
  -7   6  13 941.681 535.609   2
  -6   6  13 1828.39 658.255   2
  -5   6  13 3687.18 818.610   2
  -4   6  13 801.922 599.290   2
  -3   6  13 2775.84 804.973   2
  -2   6  13 778.596 548.910   2
   2   6 -13 1341.03 633.184   3
  -1   6  13 3113.02 790.174   2
   1   6 -13 3332.64 762.162   3
   0   6  13 3349.53 787.986   2
   0   6 -13 3818.77 838.926   3
  -1   6 -13 6437.34 1029.17   3
  -2   6 -13 4600.38 835.361   3
  -3   6 -13 7050.33 1031.95   3
  -4   6 -13 11060.6 1273.24   3
  -5   6 -13 14051.7 1435.48   3
  -6   6 -13 11710.9 1341.94   3
  -7   6 -13 7691.25 1089.71   3
  -8   6 -13 4307.26 903.904   3
 -11   7  13-22.4298 546.401   2
 -10   7  13 1792.30 857.549   2
  -9   7  13 1826.20 820.404   2
  -8   7  13 3717.40 936.683   2
  -7   7  13 6578.53 1163.07   2
  -6   7  13 2673.26 842.534   2
  -5   7  13 6851.90 1140.41   2
  -4   7  13 3044.48 808.857   2
  -3   7  13 3273.10 788.092   2
  -2   7  13 3448.78 853.055   2
   2   7 -13 4860.24 934.370   3
  -1   7  13 1687.98 644.019   2
   1   7 -13 2794.85 702.267   3
   0   7  13 1059.54 565.995   2
   0   7 -13 1663.93 654.817   3
   1   7  13 821.073 536.427   2
  -1   7 -13 767.360 566.807   3
  -2   7 -13 778.436 574.865   3
  -3   7 -13 711.762 476.344   3
  -4   7 -13 988.230 558.647   3
  -5   7 -13 3112.54 812.816   3
  -6   7 -13 3758.44 901.014   3
  -7   8  13-582.738 649.639   2
  -6   8  13 612.638 533.767   2
  -5   8  13 156.256 409.545   2
  -4   8  13 502.760 584.222   2
   3   8 -13-127.640 646.996   3
  -3   8  13 521.274 568.470   2
  -2   8  13 445.719 568.176   2
   2   8 -13 66.4098 530.086   3
  -1   8  13 212.063 546.196   2
   1   8 -13 1612.83 720.130   3
   0   8  13 743.767 581.086   2
   0   8 -13 1838.23 673.422   3
   1   8  13 4283.21 940.866   2
  -1   8 -13 4915.34 949.759   3
  -2   8 -13 6739.31 1096.87   3
  -3   8 -13 5704.41 1013.18   3
  14   0 -14-743.534 815.563   1
  13   0 -14 688.668 651.619   1
  12   0 -14-1398.79 928.150   1
  11   0 -14 1788.78 849.874   1
  10   0 -14 3278.25 918.396   1
   9   0 -14 10128.3 1579.27   1
   8   0 -14 15634.6 1880.11   1
   7   0 -14 27084.1 2362.93   1
   6   0 -14 54725.2 3328.16   1
   5   0 -14 96740.4 4321.59   1
   4   0 -14 84815.0 3900.17   1
   3   0 -14 92274.3 3200.53   3
   3   0 -14 91972.2 3891.48   1
   2   0 -14 108270. 3470.15   3
   2   0 -14 110198. 4049.19   1
   1   0 -14 88557.9 3080.95   3
   1   0 -14 90149.6 3379.16   1
   0   0 -14 98409.7 3280.01   3
  -1   0 -14 118072. 3665.64   3
  -2   0 -14 146491. 4170.74   3
  -3   0 -14 121279. 3826.92   3
  -4   0 -14 78188.9 3048.64   3
  -5   0 -14 59097.3 2706.61   3
  -6   0 -14 46718.6 2474.34   3
  -7   0 -14 13774.4 1387.12   3
  -8   0 -14 10862.7 1309.98   3
  -9   0 -14 19284.3 1767.86   3
 -10   0 -14 2166.45 825.090   3
 -11   0 -14-603.021 498.013   3
 -12   0 -14-10.1235 594.217   3
  14   1 -14 6288.79 1344.16   1
  14  -1 -14 7551.97 1493.96   1
  13  -1 -14 8297.98 1425.85   1
  13   1 -14 10081.1 1597.49   1
  12  -1 -14 13210.5 1798.06   1
  12   1 -14 9477.59 1573.26   1
  11  -1 -14 17612.0 2050.50   1
  11   1 -14 15647.9 1929.41   1
  10   1 -14 18349.3 2079.79   1
  10  -1 -14 18562.5 2070.51   1
   9   1 -14 16251.5 1940.88   1
   9  -1 -14 18710.5 2076.97   1
  -8   1  14 20653.4 1560.37   2
   8   1 -14 18996.5 2035.71   1
   8  -1 -14 19424.2 2047.33   1
  -7   1  14 16088.7 1349.42   2
   7   1 -14 14238.9 1746.84   1
   7  -1 -14 13181.4 1687.99   1
  -6   1  14 26888.5 1742.39   2
   6   1 -14 24896.0 2202.67   1
   6  -1 -14 22968.1 2076.76   1
   5   1 -14 11930.6 1510.90   1
   5  -1 -14 9628.31 1296.59   1
   4   1 -14 12768.2 1510.07   1
   4  -1 -14 13280.7 1403.01   1
   3   1 -14 7541.35 1140.05   1
   3  -1 -14 8975.90 913.688   3
   3   1 -14 8389.18 1000.19   3
   3  -1 -14 8350.16 1035.27   1
   2   1 -14 3822.52 788.410   1
   2  -1 -14 3709.82 616.325   3
   2   1 -14 3894.98 725.638   3
   2  -1 -14 4081.78 696.241   1
   1  -1 -14 692.045 294.230   1
   1  -1 -14 448.814 343.310   3
   1   1 -14 1477.50 546.344   3
   0   1 -14 72.0726 395.955   1
   0  -1 -14 147.742 309.731   3
   0   1 -14 55.6486 372.232   3
  -1  -1 -14 1668.62 487.850   3
  -1   1 -14 3124.54 648.240   3
  -2  -1 -14 5796.18 808.766   3
  -2   1 -14 5553.76 853.521   3
  -3  -1 -14 14077.7 1207.60   3
  -3   1 -14 15141.2 1323.88   3
  -4  -1 -14 21341.7 1526.61   3
  -4   1 -14 22946.6 1627.10   3
  -5  -1 -14 24589.0 1721.82   3
  -5   1 -14 22783.2 1663.97   3
  -6  -1 -14 23797.9 1746.96   3
  -6   1 -14 26602.7 1825.19   3
  -7  -1 -14 19248.1 1613.61   3
  -7   1 -14 19766.2 1649.71   3
  -8   1 -14 32420.1 2175.90   3
  -8  -1 -14 37559.1 2370.03   3
  -9   1 -14 30803.1 2206.80   3
  -9  -1 -14 34610.3 2379.62   3
 -10  -1 -14 30016.2 2331.68   3
 -10   1 -14 31953.5 2294.01   3
 -11  -1 -14 30333.9 2431.31   3
 -11   1 -14 28539.0 2268.76   3
 -12  -1 -14 26561.8 2391.55   3
 -12   1 -14 26378.7 2281.18   3
 -13  -1 -14 19119.5 2100.27   3
  14   2 -14 2097.78 815.516   1
  14  -2 -14 4358.66 1151.81   1
  13   2 -14 5789.11 1254.98   1
  13  -2 -14 6154.47 1407.04   1
  12   2 -14 6358.44 1347.56   1
  12  -2 -14 6450.07 1361.33   1
  11   2 -14 4508.41 1100.33   1
  11  -2 -14 4375.86 1119.38   1
  10   2 -14 2928.66 861.256   1
  10  -2 -14 2837.96 972.610   1
   9   2 -14 1366.10 628.720   1
   9  -2 -14 1733.20 767.286   1
  -9   2  14 1841.92 548.572   2
   8   2 -14 2443.55 793.836   1
   8  -2 -14 1638.28 672.707   1
  -8   2  14 1720.27 498.273   2
  -7   2  14 1179.09 518.701   2
   7   2 -14-85.5955 556.243   1
   7  -2 -14 582.364 511.553   1
  -6   2  14 5830.75 892.423   2
   6   2 -14 4458.90 971.155   1
   6  -2 -14 5470.68 1052.40   1
  -5   2  14 9086.55 1100.56   2
   5   2 -14 8213.92 1191.51   1
   5  -2 -14 7803.97 1123.51   1
  -4   2  14 843.812 470.484   2
   4  -2 -14 1489.37 502.419   1
   4  -2 -14 1898.93 470.473   3
   3  -2 -14 133.783 264.910   3
   3  -2 -14 181.547 374.196   1
   2  -2 -14 4.75307 250.840   3
   2   2 -14 70.3346 399.639   3
   1  -2 -14 551.286 315.009   3
   1   2 -14 1058.41 515.922   3
   0  -2 -14 746.872 348.103   3
   0   2 -14 1384.86 552.822   3
  -1  -2 -14 324.267 309.798   3
  -1   2 -14 306.883 451.468   3
  -2  -2 -14 967.894 418.454   3
  -2   2 -14 1269.41 585.446   3
  -3  -2 -14 596.812 357.880   3
  -3   2 -14 347.907 455.356   3
  -4  -2 -14 52.0326 346.793   3
  -4   2 -14 794.425 554.379   3
  -5  -2 -14-116.313 408.572   3
  -5   2 -14 175.461 385.195   3
  -6  -2 -14-345.409 487.420   3
  -6   2 -14 168.675 385.452   3
  -7  -2 -14 466.348 580.027   3
  -7   2 -14-6.82217 414.227   3
  -8  -2 -14 920.909 568.057   3
  -8   2 -14 435.397 538.595   3
  -9  -2 -14 1550.48 671.193   3
  -9   2 -14 1509.14 627.812   3
 -10  -2 -14 1148.66 663.327   3
 -10   2 -14 628.769 474.984   3
 -11  -2 -14 828.100 639.714   3
 -11   2 -14 3211.98 919.353   3
 -12  -2 -14 671.611 621.169   3
 -13  -2 -14 283.057 595.662   3
  13   3 -14 2170.43 902.630   1
  13  -3 -14 4941.11 1254.81   1
  12  -3 -14 2961.63 1043.53   1
  12   3 -14 2400.02 816.523   1
  11   3 -14 2261.86 868.423   1
 -11   3  14 1484.58 608.477   2
  11  -3 -14 925.921 732.718   1
  10   3 -14 238.992 534.937   1
  10  -3 -14 785.290 664.999   1
 -10   3  14 322.356 398.910   2
   9  -3 -14 1111.43 661.660   1
  -9   3  14 618.204 548.044   2
  -8   3  14-51.9024 415.026   2
  -7   3  14 20.2260 422.405   2
  -6   3  14 1617.87 568.607   2
  -5   3  14 3985.17 791.656   2
  -4   3  14 2667.13 691.109   2
  -3   3  14 581.881 489.564   2
   2   3 -14 684.747 451.412   3
   1   3 -14 1479.67 486.651   3
   0   3 -14 2756.51 706.037   3
  -1   3 -14 3243.68 764.579   3
  -2  -3 -14 1988.99 471.320   3
  -2   3 -14 1666.56 550.372   3
  -3  -3 -14 10137.8 1038.88   3
  -3   3 -14 11063.1 1192.55   3
  -4  -3 -14 3332.27 620.140   3
  -4   3 -14 4733.11 823.296   3
  -5  -3 -14 1587.38 594.981   3
  -5   3 -14 1762.28 586.108   3
  -6  -3 -14 2261.41 656.294   3
  -6   3 -14 498.230 427.423   3
  -7  -3 -14 1370.19 621.914   3
  -7   3 -14 60.0289 482.995   3
  -8  -3 -14 1742.83 697.430   3
  -8   3 -14 1814.63 670.013   3
  -9  -3 -14 4674.78 951.174   3
  -9   3 -14 3023.84 791.297   3
 -10   3 -14 4296.39 905.365   3
  12   4 -14 7793.76 1463.72   1
 -12   4  14 6159.43 1142.04   2
 -11   4  14 5224.35 1125.70   2
 -10   4  14 7103.25 1208.65   2
  -9   4  14 4935.07 970.425   2
  -8   4  14 4205.04 936.146   2
  -7   4  14 4482.97 904.347   2
  -6   4  14 112.769 361.981   2
  -5   4  14 236.929 404.809   2
  -4   4  14 983.572 517.941   2
  -3   4  14-92.4623 397.621   2
  -2   4  14 512.696 540.277   2
   2   4 -14 108.800 433.024   3
   1   4 -14 279.740 464.593   3
   0   4 -14 232.900 421.412   3
  -1   4 -14 3.99501 408.430   3
  -2   4 -14 67.9262 482.347   3
  -3   4 -14 1394.78 493.151   3
  -4   4 -14 1384.15 605.279   3
  -5   4 -14 888.271 577.523   3
  -6   4 -14-41.0542 463.068   3
  -7   4 -14 753.394 564.418   3
  -8   4 -14-232.096 468.721   3
  -9   4 -14-342.597 630.521   3
 -14   5  14 1974.86 879.470   2
 -13   5  14 3104.68 981.896   2
 -12   5  14 4491.37 1199.25   2
 -11   5  14 5772.46 1196.23   2
 -10   5  14 5130.16 1044.13   2
  -9   5  14 10089.2 1358.37   2
  -8   5  14 11465.0 1482.75   2
  -7   5  14 11047.6 1388.26   2
  -6   5  14 14884.7 1551.79   2
  -5   5  14 3318.67 751.320   2
  -4   5  14 2789.77 757.849   2
  -3   5  14 9209.88 1244.04   2
  -2   5  14 4352.59 910.737   2
   2   5 -14 3578.03 806.042   3
  -1   5  14 2207.97 766.137   2
   1   5 -14 912.927 496.080   3
   0   5 -14 885.273 531.394   3
  -1   5 -14 1366.45 628.169   3
  -2   5 -14 298.920 447.637   3
  -3   5 -14 4092.07 872.743   3
  -4   5 -14 4250.26 866.725   3
  -5   5 -14 4047.06 906.630   3
  -6   5 -14 6061.51 1068.17   3
  -7   5 -14 7692.66 1145.09   3
  -8   5 -14 6607.26 1117.86   3
 -12   6  14 1041.37 710.387   2
 -11   6  14-606.644 693.201   2
 -10   6  14 12.8278 637.754   2
  -9   6  14 26.1893 571.330   2
  -8   6  14 536.323 575.972   2
  -7   6  14 2381.01 816.238   2
  -6   6  14 3161.72 857.046   2
  -5   6  14 4174.66 898.003   2
  -4   6  14 5534.47 1052.75   2
  -3   6  14 8523.41 1271.54   2
   3   6 -14 8770.39 1206.52   3
  -2   6  14 12326.7 1452.94   2
   2   6 -14 13804.1 1502.50   3
  -1   6  14 12683.9 1460.17   2
   1   6 -14 12283.6 1431.63   3
   0   6  14 18529.0 1748.08   2
   0   6 -14 14737.4 1537.94   3
  -1   6 -14 18987.6 1697.74   3
  -2   6 -14 13571.0 1447.00   3
  -3   6 -14 13019.3 1454.40   3
  -4   6 -14 12472.9 1410.74   3
  -5   6 -14 14223.8 1513.62   3
  -6   6 -14 15252.9 1577.52   3
  -9   7  14 932.855 713.558   2
  -8   7  14 377.575 657.680   2
  -7   7  14 1346.36 736.252   2
  -6   7  14 679.548 631.254   2
  -5   7  14 121.897 502.831   2
  -4   7  14 364.475 515.542   2
  -3   7  14 153.501 507.857   2
   3   7 -14 871.424 666.628   3
  -2   7  14 877.036 533.108   2
   2   7 -14-596.855 610.527   3
  -1   7  14 104.538 467.898   2
   1   7 -14 919.969 639.682   3
   0   7  14 15.6362 542.049   2
   0   7 -14 1122.71 627.213   3
  -1   7 -14 333.353 484.461   3
  -2   7 -14 1092.14 617.282   3
  -3   7 -14 2492.65 726.620   3
  -4   7 -14 5848.26 988.611   3
  13   0 -15-604.272 701.196   1
  12   0 -15-953.311 789.230   1
  11   0 -15-8.72774 587.761   1
  10   0 -15 868.741 779.279   1
   9   0 -15-315.684 712.365   1
   8   0 -15 274.474 506.730   1
   7   0 -15-307.586 577.430   1
   6   0 -15-1066.01 744.518   1
   5   0 -15-418.224 522.176   1
   4   0 -15-518.633 443.358   3
   4   0 -15-889.109 542.562   1
   3   0 -15-137.344 368.820   3
   3   0 -15-241.378 528.368   1
   2   0 -15 616.098 368.011   1
   2   0 -15 201.235 345.565   3
   1   0 -15 88.8625 365.236   3
   0   0 -15 218.632 318.292   3
  -1   0 -15 313.814 331.940   3
  -2   0 -15 479.923 439.707   3
  -3   0 -15 518.472 468.430   3
  -4   0 -15 66.6249 375.535   3
  -5   0 -15 239.131 393.737   3
  -6   0 -15 590.327 469.888   3
  -7   0 -15 179.368 473.581   3
  -8   0 -15 179.633 476.954   3
  -9   0 -15 366.140 506.579   3
 -10   0 -15-14.5498 427.900   3
 -11   0 -15 263.159 618.611   3
  13   1 -15 6530.66 1431.55   1
  13  -1 -15 7624.76 1437.87   1
  12   1 -15 9926.52 1618.97   1
  12  -1 -15 13527.7 1880.22   1
  11  -1 -15 10920.7 1700.51   1
  11   1 -15 11613.0 1769.40   1
  10   1 -15 13783.1 1855.19   1
  10  -1 -15 14367.1 1879.53   1
   9   1 -15 19609.3 2151.08   1
   9  -1 -15 21275.6 2210.06   1
   8   1 -15 10880.1 1584.77   1
   8  -1 -15 9916.31 1529.92   1
   7   1 -15 9942.66 1479.48   1
   7  -1 -15 10147.5 1476.03   1
   6   1 -15 2987.03 816.347   1
   6  -1 -15 5806.83 1071.91   1
   5   1 -15 7627.78 1253.34   1
   5  -1 -15 8636.08 1261.32   1
   4   1 -15 8040.88 1251.50   1
   4  -1 -15 8861.48 968.662   3
   4  -1 -15 8737.91 1168.12   1
   3   1 -15 7838.65 1183.99   1
   3  -1 -15 8491.46 941.801   3
   3   1 -15 7363.84 966.407   3
   3  -1 -15 8507.93 1061.30   1
   2   1 -15 5182.10 939.981   1
   2  -1 -15 4697.70 727.029   3
   2   1 -15 5428.31 872.853   3
   1  -1 -15 205.040 344.329   3
   1   1 -15 163.068 418.786   3
   0  -1 -15 175.696 306.383   3
   0   1 -15 746.994 462.045   3
  -1  -1 -15 91.5538 360.562   3
  -1   1 -15-130.137 368.665   3
  -2  -1 -15 3828.90 775.953   3
  -2   1 -15 2481.73 617.146   3
  -3  -1 -15 146.334 353.030   3
  -3   1 -15 1043.35 558.967   3
  -4  -1 -15 678.516 491.761   3
  -4   1 -15 559.144 408.703   3
  -5  -1 -15 999.317 521.635   3
  -5   1 -15 1053.80 513.865   3
  -6  -1 -15 486.568 438.378   3
  -6   1 -15 802.258 518.453   3
  -7  -1 -15 15147.2 1524.48   3
  -7   1 -15 13222.5 1417.97   3
  -8   1 -15 14651.8 1564.35   3
  -8  -1 -15 17124.5 1679.06   3
  -9  -1 -15 9679.16 1345.50   3
  -9   1 -15 7489.96 1126.50   3
 -10  -1 -15 9251.72 1378.44   3
 -10   1 -15 7818.65 1207.91   3
 -11  -1 -15 6815.75 1339.05   3
 -11   1 -15 7592.63 1255.99   3
 -12  -1 -15 4925.75 1122.16   3
  13  -2 -15 978.643 778.625   1
  13   2 -15-719.046 733.127   1
  12   2 -15-437.877 597.034   1
  12  -2 -15 1364.66 894.579   1
  11   2 -15 3716.20 1100.15   1
  11  -2 -15 3240.51 1098.38   1
  10   2 -15 3011.81 925.541   1
  10  -2 -15 3249.11 909.766   1
   9   2 -15 5458.61 1205.79   1
   9  -2 -15 5561.32 1166.82   1
  -8   2  15 9345.97 1162.72   2
   8   2 -15 9550.15 1421.99   1
   8  -2 -15 9480.81 1499.75   1
  -7   2  15 8872.37 1148.21   2
   7   2 -15 11045.5 1539.91   1
   7  -2 -15 12757.1 1586.73   1
  -6   2  15 20126.1 1640.10   2
   6   2 -15 16339.7 1775.44   1
   6  -2 -15 17847.8 1781.09   1
  -5   2  15 20999.1 1683.96   2
   5   2 -15 17001.5 1764.10   1
   5  -2 -15 15049.8 1155.89   3
   5  -2 -15 20768.6 1805.37   1
   4   2 -15 14921.5 1650.27   1
   4  -2 -15 13210.3 1092.11   3
   4  -2 -15 17743.4 1569.27   1
   3   2 -15 16020.7 1603.10   1
   3  -2 -15 16846.8 1217.50   3
   3   2 -15 17928.5 1543.24   3
   2   2 -15 14942.2 1508.46   1
   2  -2 -15 16381.5 1199.58   3
   2   2 -15 17621.8 1522.44   3
   1   2 -15 15189.0 1435.76   1
   1  -2 -15 17474.4 1282.19   3
   1   2 -15 19326.8 1605.02   3
   0  -2 -15 23084.2 1496.78   3
   0   2 -15 24213.2 1761.45   3
  -1  -2 -15 20623.7 1445.95   3
  -1   2 -15 20283.6 1642.94   3
  -2  -2 -15 17078.8 1349.75   3
  -2   2 -15 15458.5 1438.32   3
  -3  -2 -15 14524.8 1286.38   3
  -3   2 -15 12825.4 1326.31   3
  -4  -2 -15 14121.5 1325.49   3
  -4   2 -15 11978.8 1290.66   3
  -5  -2 -15 8883.81 1113.97   3
  -5   2 -15 9666.32 1168.13   3
  -6  -2 -15 4435.29 873.343   3
  -6   2 -15 4094.14 841.385   3
  -7  -2 -15 8945.84 1211.80   3
  -7   2 -15 9314.08 1255.79   3
  -8  -2 -15 6136.92 1073.13   3
  -8   2 -15 4608.67 921.853   3
  -9  -2 -15 1821.53 783.242   3
  -9   2 -15 399.641 584.151   3
 -10  -2 -15 1933.74 741.079   3
 -10   2 -15-191.240 646.906   3
 -11  -2 -15 32.8440 544.512   3
 -12  -2 -15 751.161 700.179   3
  12   3 -15 612.281 712.443   1
  11   3 -15 138.077 520.476   1
  10   3 -15 657.040 768.698   1
   9   3 -15 714.370 534.324   1
  -9   3  15 1291.63 481.128   2
   8   3 -15 166.807 535.638   1
  -8   3  15 1250.03 581.999   2
  -7   3  15-384.793 472.957   2
  -6   3  15 336.887 412.118   2
  -5   3  15 859.297 514.769   2
  -4   3  15 10705.1 1280.66   2
   3   3 -15 10382.4 1262.16   3
   2   3 -15 9544.50 1213.92   3
   1   3 -15 5942.98 960.922   3
   0   3 -15 5313.45 949.162   3
  -1   3 -15 4666.36 918.410   3
  -2   3 -15 3800.30 834.445   3
  -3   3 -15 4389.63 900.345   3
  -4   3 -15 6146.88 1007.88   3
  -5   3 -15 2043.83 658.197   3
  -6   3 -15 610.528 549.017   3
  -7   3 -15 1614.80 599.416   3
  -8   3 -15 1153.95 620.681   3
  -9   3 -15 177.083 587.728   3
  11   4 -15 224.026 588.357   1
 -11   4  15 766.718 612.603   2
 -10   4  15 2936.16 859.760   2
  -9   4  15 618.733 492.543   2
  -8   4  15 103.631 469.671   2
  -7   4  15 16.6783 431.335   2
  -6   4  15 507.644 513.250   2
  -5   4  15 1253.87 639.458   2
  -4   4  15 816.484 540.925   2
  -3   4  15 995.234 625.187   2
   3   4 -15 1087.86 516.613   3
   2   4 -15 6993.02 1078.18   3
   1   4 -15 11293.2 1309.03   3
   0   4 -15 14916.9 1499.46   3
  -1   4 -15 21306.6 1791.74   3
  -2   4 -15 26580.2 2006.71   3
  -3   4 -15 29238.1 2105.11   3
  -4   4 -15 45165.8 2646.60   3
  -5   4 -15 39369.0 2463.97   3
  -6   4 -15 44607.5 2632.75   3
  -7   4 -15 41606.8 2588.29   3
  -8   4 -15 29022.7 2209.23   3
 -12   5  15-793.409 833.177   2
 -11   5  15 550.147 524.690   2
 -10   5  15-147.371 646.120   2
  -9   5  15 2479.54 846.262   2
  -8   5  15 2034.26 718.549   2
  -7   5  15 9741.91 1362.84   2
  -6   5  15 5956.40 1114.73   2
  -5   5  15 10475.5 1381.59   2
  -4   5  15 8869.88 1300.95   2
  -3   5  15 7258.22 1187.31   2
   3   5 -15 6513.91 1077.49   3
  -2   5  15 14250.1 1595.97   2
   2   5 -15 16850.1 1669.12   3
   1   5 -15 15906.3 1619.48   3
   0   5 -15 20735.0 1816.02   3
  -1   5 -15 14776.4 1548.77   3
  -2   5 -15 9200.76 1234.13   3
  -3   5 -15 11700.4 1409.76   3
  -4   5 -15 5992.46 1050.65   3
  -5   5 -15 2883.05 821.763   3
  -6   5 -15 1330.13 648.248   3
 -11   6  15-752.437 792.023   2
 -10   6  15 2020.92 817.002   2
  -9   6  15 1531.12 687.568   2
  -8   6  15 4677.68 1057.64   2
  -7   6  15 4465.84 965.767   2
  -6   6  15 4935.94 1038.45   2
  -5   6  15 5474.65 1078.78   2
  -4   6  15 7661.79 1267.37   2
  -3   6  15 7029.55 1204.72   2
   3   6 -15 5550.68 1059.84   3
  -2   6  15 5380.85 1077.73   2
   2   6 -15 6668.39 1170.55   3
  -1   6  15 5464.89 1107.53   2
   1   6 -15 3145.26 805.032   3
   0   6 -15 1952.60 684.536   3
  -1   6 -15 4143.73 938.830   3
  -2   6 -15 243.415 549.905   3
  -3   6 -15-750.686 696.451   3
  -4   6 -15 934.632 625.446   3
  -6   7  15 4542.79 1059.35   2
  -5   7  15 874.435 514.306   2
  -4   7  15 815.083 535.867   2
  -3   7  15 152.939 636.790   2
  -2   7  15 574.391 605.425   2
  -1   7  15 704.800 628.421   2
  12   0 -16 1527.12 868.411   1
  11   0 -16 1028.41 802.948   1
  10   0 -16 516.816 756.526   1
   9   0 -16 238.418 574.172   1
   8   0 -16-260.887 529.322   1
   7   0 -16 2528.06 876.797   1
   6   0 -16 1613.66 743.189   1
   5   0 -16 837.571 592.075   1
   4   0 -16 2422.27 645.477   1
   4   0 -16 1343.51 474.673   3
   3   0 -16 308.760 356.998   3
   2   0 -16 402.709 369.455   3
   1   0 -16 1787.55 605.120   3
   0   0 -16 494.570 422.897   3
  -1   0 -16 646.853 381.005   3
  -2   0 -16 4804.16 835.227   3
  -3   0 -16 3534.46 739.815   3
  -4   0 -16 5370.70 920.298   3
  -5   0 -16 2802.52 695.234   3
  -6   0 -16 4924.46 917.154   3
  -7   0 -16 9534.03 1284.04   3
  -8   0 -16 2021.24 689.299   3
  -9   0 -16 9439.08 1371.65   3
 -10   0 -16 7497.62 1249.73   3
  12   1 -16 89.2260 537.515   1
  12  -1 -16 1362.48 1028.24   1
  11   1 -16-914.211 734.558   1
  11  -1 -16 556.197 814.823   1
  10   1 -16-418.726 708.436   1
  10  -1 -16-20.0435 601.196   1
   9   1 -16-747.183 732.088   1
   9  -1 -16-514.512 591.705   1
   8   1 -16-1137.14 811.578   1
   8  -1 -16 191.724 507.206   1
   7   1 -16-40.3789 532.857   1
   7  -1 -16-424.895 506.673   1
   6   1 -16-36.5203 514.231   1
   6  -1 -16 906.471 637.131   1
   5   1 -16 2230.86 768.803   1
   5  -1 -16 528.677 343.855   3
   5  -1 -16 2145.95 688.080   1
   4  -1 -16 1185.69 510.955   1
   4   1 -16-156.001 552.383   1
   4  -1 -16 494.882 388.917   3
   4   1 -16 841.935 456.440   3
   3   1 -16-18.9579 543.813   1
   3  -1 -16 1092.02 478.082   3
   3   1 -16 567.975 463.843   3
   2  -1 -16 457.230 368.984   3
   2   1 -16 836.633 485.065   3
   1  -1 -16-83.8344 321.373   3
   1   1 -16-24.0811 423.826   3
   0  -1 -16 86.9755 327.735   3
   0   1 -16 344.335 402.390   3
  -1  -1 -16 686.528 442.167   3
  -1   1 -16 34.5944 375.110   3
  -2  -1 -16 857.288 444.161   3
  -2   1 -16 1417.42 591.852   3
  -3  -1 -16 1471.41 511.101   3
  -3   1 -16 1486.86 572.958   3
  -4  -1 -16 1183.60 501.711   3
  -4   1 -16 3572.21 830.009   3
  -5  -1 -16 3735.87 819.408   3
  -5   1 -16 3396.60 778.287   3
  -6  -1 -16 1759.01 670.969   3
  -6   1 -16 1779.38 698.586   3
  -7  -1 -16 2769.31 709.157   3
  -7   1 -16 4672.01 964.060   3
  -8  -1 -16 3543.91 881.390   3
  -8   1 -16 2865.51 765.100   3
  -9  -1 -16 3467.54 965.654   3
  -9   1 -16 2531.07 784.933   3
 -10  -1 -16 5208.43 1042.26   3
 -11  -1 -16 5814.15 1237.65   3
  12  -2 -16 4955.79 1303.04   1
  12   2 -16 6273.36 1368.89   1
  11  -2 -16 8146.32 1563.47   1
  11   2 -16 4130.19 1127.74   1
  10  -2 -16 5127.34 1252.78   1
  10   2 -16 1224.88 728.659   1
   9  -2 -16 3581.34 1067.85   1
   9   2 -16 4041.59 1062.71   1
   8  -2 -16 3218.71 1001.51   1
   8   2 -16 2266.16 857.402   1
   7   2 -16 354.743 562.468   1
   7  -2 -16 356.329 608.566   1
   6   2 -16 226.405 482.450   1
  -6   2  16 1616.56 640.655   2
   6  -2 -16 2195.22 780.269   1
   5   2 -16 339.922 464.691   1
   5  -2 -16 1923.75 697.283   1
   4   2 -16 1364.62 614.134   1
   4   2 -16 2307.98 691.962   3
   3   2 -16 6078.63 1020.55   1
   3   2 -16 7112.57 1062.53   3
   2   2 -16 8082.80 1144.63   3
   1   2 -16 13410.4 1416.68   3
   0   2 -16 14543.2 1475.43   3
  -1   2 -16 23132.5 1835.48   3
  -2   2 -16 33215.4 2207.62   3
  -3   2 -16 41469.9 2475.52   3
  -4   2 -16 35512.2 2306.00   3
  -5   2 -16 30431.8 2147.68   3
  -6   2 -16 23931.6 1946.06   3
  -7   2 -16 21161.2 1866.11   3
  -8   2 -16 11658.9 1449.94   3
  -9   2 -16 12973.4 1516.98   3
  11   3 -16 7796.36 1419.62   1
  10   3 -16 12731.2 1769.79   1
   9   3 -16 13486.3 1818.30   1
  -8   3  16 24450.1 2041.61   2
   8   3 -16 22607.5 2248.61   1
  -7   3  16 31333.4 2272.76   2
   7   3 -16 27387.8 2383.24   1
  -6   3  16 31869.3 2301.77   2
   6   3 -16 28356.4 2344.14   1
  -5   3  16 32462.4 2282.32   2
   4   3 -16 26684.8 2001.06   3
   3   3 -16 27414.2 2059.32   3
   2   3 -16 25193.4 1945.65   3
   1   3 -16 25275.5 1977.73   3
   0   3 -16 19307.2 1742.38   3
  -1   3 -16 15753.5 1592.07   3
  -2   3 -16 14423.3 1525.75   3
  -3   3 -16 8756.79 1208.08   3
  -4   3 -16 2363.38 732.549   3
  -5   3 -16 449.633 548.710   3
  -6   3 -16 1036.06 636.631   3
  -7   3 -16 1493.22 724.853   3
  10   4 -16 1002.31 569.553   1
  -9   4  16-0.96355 523.877   2
  -8   4  16 869.337 649.721   2
  -7   4  16-386.575 518.419   2
  -6   4  16-21.0799 442.885   2
  -5   4  16 712.415 597.068   2
  -4   4  16-38.3097 416.597   2
   4   4 -16-1183.09 717.327   3
   3   4 -16-676.443 659.975   3
   2   4 -16 747.391 517.450   3
   1   4 -16 2674.09 771.460   3
   0   4 -16 4688.83 956.063   3
  -1   4 -16 5101.37 974.602   3
  -2   4 -16 3847.31 927.209   3
  -3   4 -16 4546.64 973.328   3
  -4   4 -16 4534.68 995.267   3
  -5   4 -16 7480.75 1171.28   3
  -6   4 -16 6344.79 1124.22   3
 -10   5  16 1850.86 775.991   2
  -9   5  16 1787.26 783.890   2
  -8   5  16 3390.49 953.012   2
  -7   5  16 3363.98 900.512   2
  -6   5  16 3689.73 914.306   2
  -5   5  16 5932.57 1156.64   2
  -4   5  16 544.043 538.016   2
   4   5 -16 1155.69 599.309   3
  -3   5  16 1101.63 734.157   2
   3   5 -16-398.878 597.133   3
   2   5 -16-65.9587 621.660   3
   1   5 -16 997.300 651.557   3
   0   5 -16-80.9985 560.199   3
  -1   5 -16 268.995 567.790   3
  -2   5 -16 701.327 557.810   3
  -3   5 -16 859.858 504.666   3
  -4   5 -16 259.325 522.146   3
  -9   6  16-16.0056 615.332   2
  -8   6  16 2549.31 969.946   2
  -7   6  16 699.643 647.352   2
  -6   6  16 4078.88 1082.69   2
  -5   6  16 4463.57 1060.30   2
  -4   6  16 3682.89 976.316   2
  -3   6  16 7004.88 1224.73   2
  -2   6  16 5135.00 1066.64   2
  11   0 -17 276.117 713.059   1
  10   0 -17 901.662 737.093   1
   9   0 -17-99.5884 681.697   1
   8   0 -17-120.177 642.406   1
   7   0 -17-888.401 764.289   1
   6   0 -17 740.392 558.097   1
   5   0 -17-382.915 392.166   3
   4   0 -17 225.632 431.851   3
   3   0 -17-35.5602 416.228   3
   2   0 -17-271.170 409.801   3
   1   0 -17 289.002 392.421   3
   0   0 -17-181.197 398.969   3
  -1   0 -17 461.709 429.928   3
  -2   0 -17-121.817 364.196   3
  -3   0 -17 463.485 496.295   3
  -4   0 -17-70.5189 407.067   3
  -5   0 -17-63.1573 504.112   3
  -6   0 -17-176.491 489.735   3
  -7   0 -17 42.4508 536.628   3
  -8   0 -17-629.891 682.290   3
  -9   0 -17 1237.11 724.617   3
  11  -1 -17 1115.64 851.391   1
  11   1 -17 1390.58 829.370   1
  10  -1 -17 2177.26 909.145   1
  10   1 -17 1838.10 808.143   1
   9  -1 -17 7724.08 1409.62   1
   9   1 -17 7378.68 1374.64   1
   8  -1 -17 10513.1 1581.04   1
   8   1 -17 11503.1 1676.01   1
   7  -1 -17 9671.71 1459.44   1
   7   1 -17 8098.62 1402.53   1
   6  -1 -17 10017.3 1415.01   1
   6   1 -17 8211.48 1356.85   1
   5   1 -17 10487.0 1258.26   3
   5   1 -17 8971.47 1346.43   1
   4   1 -17 10977.0 1266.98   3
   3   1 -17 22028.7 1805.76   3
   2  -1 -17 24870.3 1704.67   3
   2   1 -17 26581.0 1967.03   3
   1  -1 -17 22818.0 1658.41   3
   1   1 -17 22489.6 1803.32   3
   0  -1 -17 20356.0 1579.50   3
   0   1 -17 22321.3 1798.34   3
  -1  -1 -17 16043.2 1441.38   3
  -1   1 -17 18289.2 1605.20   3
  -2  -1 -17 12692.9 1289.25   3
  -2   1 -17 14620.7 1477.62   3
  -3  -1 -17 14375.9 1416.83   3
  -3   1 -17 12039.8 1374.95   3
  -4  -1 -17 13818.3 1405.16   3
  -4   1 -17 10700.6 1322.65   3
  -5  -1 -17 10140.5 1291.31   3
  -5   1 -17 12475.6 1435.68   3
  -6  -1 -17 7848.33 1172.77   3
  -6   1 -17 9354.08 1313.56   3
  -7  -1 -17 4301.84 940.098   3
  -7   1 -17 4686.39 982.216   3
  -8  -1 -17 3136.41 923.610   3
  -8   1 -17 1965.44 769.895   3
  -9  -1 -17 1521.19 741.177   3
  11  -2 -17 1830.27 889.028   1
  11   2 -17 2599.97 1026.33   1
  10  -2 -17 5064.54 1239.64   1
  10   2 -17 5375.75 1230.13   1
   9   2 -17 4193.27 1130.88   1
   9  -2 -17 6462.05 1396.72   1
   8   2 -17 868.383 481.304   1
   8  -2 -17 3420.77 1006.41   1
   7   2 -17 2278.48 800.195   1
   7  -2 -17 2366.91 810.125   1
   6   2 -17 1036.31 502.795   1
   5   2 -17 2065.65 758.362   1
   5   2 -17 2211.15 678.783   3
   4   2 -17 1037.92 585.017   3
   3   2 -17-270.892 528.376   3
   2   2 -17 181.130 486.872   3
   1   2 -17 95.3525 491.027   3
   0   2 -17 1724.36 689.900   3
  -1   2 -17 1574.26 648.248   3
  -2   2 -17 3655.81 867.823   3
  -3   2 -17 6373.16 1086.09   3
  -4   2 -17 6678.68 1096.96   3
  -5   2 -17 10633.6 1393.58   3
  -6   2 -17 17481.1 1736.16   3
  -7   2 -17 15484.4 1696.90   3
  10   3 -17 317.621 587.661   1
   9   3 -17 970.185 693.752   1
   8   3 -17-681.224 719.008   1
   7   3 -17 597.358 565.085   1
   6   3 -17-800.524 608.316   1
  -6   3  17 672.476 580.123   2
   5   3 -17-535.113 578.120   1
   4   3 -17-86.8212 406.594   3
   3   3 -17 306.967 445.361   3
   2   3 -17-449.804 498.927   3
   1   3 -17 693.857 647.121   3
   0   3 -17 87.5304 530.502   3
  -1   3 -17 1050.17 636.910   3
  -2   3 -17 2084.28 702.972   3
  -3   3 -17 2761.38 790.221   3
  -4   3 -17 2478.58 752.956   3
  -5   3 -17 1667.65 718.387   3
   9   4 -17-268.363 602.551   1
   8   4 -17 348.137 587.596   1
  -7   4  17-294.760 554.767   2
  -6   4  17 106.678 447.125   2
  -5   4  17 395.127 493.287   2
   5   4 -17 62.1458 403.939   3
   4   4 -17 1411.65 571.184   3
   3   4 -17 874.373 554.791   3
   2   4 -17 3758.36 911.912   3
   1   4 -17 4155.17 979.386   3
   0   4 -17 5883.27 1120.69   3
  -1   4 -17 8480.00 1261.14   3
  -2   4 -17 7577.96 1198.80   3
  -3   4 -17 5432.00 1062.12   3
  -9   5  17 4671.45 1049.89   2
  -8   5  17 5942.21 1228.72   2
  -7   5  17 6277.64 1192.14   2
  -6   5  17 7093.87 1261.55   2
  -5   5  17 5552.40 1139.83   2
  -4   5  17 3893.63 1045.90   2
  10   0 -18 8259.50 1552.53   1
   9   0 -18 11396.8 1717.25   1
   8   0 -18 14948.9 1922.08   1
   6   0 -18 12905.2 1356.97   3
   5   0 -18 9457.25 1190.02   3
   4   0 -18 3459.22 778.199   3
   3   0 -18 866.971 511.160   3
   2   0 -18 707.942 476.528   3
   1   0 -18 997.176 584.780   3
   0   0 -18 1406.31 601.020   3
  -1   0 -18 2780.09 803.790   3
  -2   0 -18 3592.90 848.390   3
  -3   0 -18 7791.53 1143.22   3
  -4   0 -18 18623.2 1717.28   3
  -5   0 -18 27502.6 2124.52   3
  -6   0 -18 16069.3 1700.08   3
  -7   0 -18 10206.6 1418.69   3
  10   1 -18 875.681 676.280   1
  10  -1 -18 1713.22 850.205   1
   9  -1 -18 2466.72 963.231   1
   9   1 -18 1287.85 673.709   1
   8   1 -18 2361.90 887.531   1
   6   1 -18 2837.55 740.279   3
   5   1 -18 6056.77 1013.99   3
   4   1 -18 14005.3 1508.04   3
   3   1 -18 10827.8 1313.60   3
   2   1 -18 16491.7 1613.86   3
   1   1 -18 11993.9 1370.23   3
   0   1 -18 10767.2 1299.31   3
  -1   1 -18 9686.63 1255.26   3
  -2   1 -18 11276.7 1364.09   3
  -3   1 -18 7777.31 1197.72   3
  -4   1 -18 5303.69 992.394   3
  -5   1 -18 2061.77 766.977   3
  -6   1 -18 2197.41 786.583   3
  10  -2 -18 718.119 761.108   1
   9  -2 -18 1144.63 741.078   1
   9   2 -18-377.650 676.107   1
   8   2 -18-2.35585 628.612   1
   7   2 -18 55.4608 470.506   1
   6   2 -18 692.686 536.213   3
   5   2 -18 554.003 584.752   3
   4   2 -18 196.950 424.732   3
   3   2 -18 705.324 533.532   3
   2   2 -18 1315.38 629.951   3
   1   2 -18 1458.85 731.307   3
   0   2 -18 2988.82 864.872   3
  -1   2 -18 412.319 511.933   3
  -2   2 -18 1207.91 662.694   3
  -3   2 -18 871.160 650.623   3
  -4   2 -18 536.511 564.733   3
  -5   2 -18 188.988 544.328   3
   9   3 -18-1243.06 835.872   1
   8   3 -18 1298.48 718.277   1
   7   3 -18 2117.46 798.259   1
   5   3 -18 813.737 614.883   3
   4   3 -18 11028.1 1419.15   3
   3   3 -18 2896.66 864.786   3
   2   3 -18 3923.99 939.979   3
   1   3 -18 5526.51 1029.46   3
   0   3 -18 4301.07 971.826   3
  -1   3 -18 8671.75 1324.20   3
  -2   3 -18 9654.25 1391.40   3
   8   4 -18-245.276 496.066   1
   7   4 -18-171.278 462.375   1
  -6   5  18 2475.39 855.824   2
   7   1 -19-575.304 569.878   3
   6   1 -19-82.8278 534.174   3
   5   1 -19 2178.31 745.469   3
   4   1 -19 54.4689 474.194   3
   3   1 -19 5047.53 964.266   3
   2   1 -19 7074.94 1131.72   3
   1   1 -19 7785.67 1206.33   3
   0   1 -19 9980.01 1311.13   3
  -1   1 -19 7141.37 1146.63   3
  -2   1 -19 5900.17 1059.15   3
  -3   1 -19 6361.23 1133.67   3
  -4   1 -19 3822.09 894.619   3
   6   2 -19 465.708 489.430   3
   5   2 -19 1381.14 675.240   3
   4   2 -19 1338.30 669.263   3
   3   2 -19 2055.36 789.386   3
   2   2 -19 495.300 530.796   3
   1   2 -19 1013.55 649.511   3
   0   2 -19 555.990 546.707   3
  -1   2 -19 1474.56 732.625   3
  -2   2 -19 1424.28 734.828   3
   0   0   0    0.00    0.00   0
TITL 3 in P2(1)/c
REM P2(1)/c (#14 in standard setting)
CELL 0.71073  15.976127   9.595224  14.661986  90.0000  95.1098  90.0000
ZERR   25.00   0.000368   0.000237   0.000353   0.0000   0.0022   0.0000
LATT  1
SYMM -x, y+1/2,-z+1/2
SFAC C H N O S Pb
UNIT 25.00 25.00 25.00 25.00 25.00 25.00
TREF
HKLF 4
END
;
_shelx_hkl_checksum               54131
_olex2_submission_special_instructions 'No special instructions were received'
