####################################################################### 
# 
# This file contains crystal structure data downloaded from the 
# Cambridge Structural Database (CSD) hosted by the Cambridge 
# Crystallographic Data Centre (CCDC).
# 
# Full information about CCDC data access policies and citation 
# guidelines are available at http://www.ccdc.cam.ac.uk/access/V1 
# 
# Audit and citation data items may have been added by the CCDC. 
# Please retain this information to preserve the provenance of 
# this file and to allow appropriate attribution of the data. 
# 
#######################################################################

data_NH2-UiO66
_audit_block_doi                 10.5517/cc1j5st9
_database_code_depnum_ccdc_archive 'CCDC 1405751'
loop_
_citation_id
_citation_doi
_citation_year
1 10.1002/anie.201505461 2015
_audit_update_record             
;
2015-06-12 deposited with the CCDC.	2020-01-06 downloaded from the CCDC.
;

_audit_creation_method           SHELXL-2014/7
_shelxl_version_number           2014/7
_chemical_name_systematic        ?
_chemical_name_common            NH2-UiO-66
_chemical_melting_point          ?
_chemical_formula_moiety         ?
_chemical_formula_sum            'C39.89 H3.98 N5 O40.56 Zr6'
_chemical_formula_weight         1749.42

loop_
_atom_type_symbol
_atom_type_description
_atom_type_scat_dispersion_real
_atom_type_scat_dispersion_imag
_atom_type_scat_source
C C 0.0040 0.0020 'Calculated using XDISP in WinGX (Farrugia, 1999)'
H H 0.0000 0.0000 'Calculated using XDISP in WinGX (Farrugia, 1999)'
N N 0.0080 0.0040 'Calculated using XDISP in WinGX (Farrugia, 1999)'
O O 0.0130 0.0070 'Calculated using XDISP in WinGX (Farrugia, 1999)'
Zr Zr -1.7860 0.6600 "Calculated using XDISP in WinGX (Farrugia, 1999)'4"

_space_group_crystal_system      cubic
_space_group_IT_number           225
_space_group_name_H-M_alt        'F m -3 m'
_space_group_name_Hall           '-F 4 2 3'

_shelx_space_group_comment       
;
The symmetry employed for this shelxl refinement is uniquely defined
by the following loop, which should always be used as a source of
symmetry information in preference to the above space-group names.
They are only intended as comments.
;

loop_
_space_group_symop_operation_xyz
'x, y, z'
'-x, -y, z'
'-x, y, -z'
'x, -y, -z'
'z, x, y'
'z, -x, -y'
'-z, -x, y'
'-z, x, -y'
'y, z, x'
'-y, z, -x'
'y, -z, -x'
'-y, -z, x'
'y, x, -z'
'-y, -x, -z'
'y, -x, z'
'-y, x, z'
'x, z, -y'
'-x, z, y'
'-x, -z, -y'
'x, -z, y'
'z, y, -x'
'z, -y, x'
'-z, y, x'
'-z, -y, -x'
'x, y+1/2, z+1/2'
'-x, -y+1/2, z+1/2'
'-x, y+1/2, -z+1/2'
'x, -y+1/2, -z+1/2'
'z, x+1/2, y+1/2'
'z, -x+1/2, -y+1/2'
'-z, -x+1/2, y+1/2'
'-z, x+1/2, -y+1/2'
'y, z+1/2, x+1/2'
'-y, z+1/2, -x+1/2'
'y, -z+1/2, -x+1/2'
'-y, -z+1/2, x+1/2'
'y, x+1/2, -z+1/2'
'-y, -x+1/2, -z+1/2'
'y, -x+1/2, z+1/2'
'-y, x+1/2, z+1/2'
'x, z+1/2, -y+1/2'
'-x, z+1/2, y+1/2'
'-x, -z+1/2, -y+1/2'
'x, -z+1/2, y+1/2'
'z, y+1/2, -x+1/2'
'z, -y+1/2, x+1/2'
'-z, y+1/2, x+1/2'
'-z, -y+1/2, -x+1/2'
'x+1/2, y, z+1/2'
'-x+1/2, -y, z+1/2'
'-x+1/2, y, -z+1/2'
'x+1/2, -y, -z+1/2'
'z+1/2, x, y+1/2'
'z+1/2, -x, -y+1/2'
'-z+1/2, -x, y+1/2'
'-z+1/2, x, -y+1/2'
'y+1/2, z, x+1/2'
'-y+1/2, z, -x+1/2'
'y+1/2, -z, -x+1/2'
'-y+1/2, -z, x+1/2'
'y+1/2, x, -z+1/2'
'-y+1/2, -x, -z+1/2'
'y+1/2, -x, z+1/2'
'-y+1/2, x, z+1/2'
'x+1/2, z, -y+1/2'
'-x+1/2, z, y+1/2'
'-x+1/2, -z, -y+1/2'
'x+1/2, -z, y+1/2'
'z+1/2, y, -x+1/2'
'z+1/2, -y, x+1/2'
'-z+1/2, y, x+1/2'
'-z+1/2, -y, -x+1/2'
'x+1/2, y+1/2, z'
'-x+1/2, -y+1/2, z'
'-x+1/2, y+1/2, -z'
'x+1/2, -y+1/2, -z'
'z+1/2, x+1/2, y'
'z+1/2, -x+1/2, -y'
'-z+1/2, -x+1/2, y'
'-z+1/2, x+1/2, -y'
'y+1/2, z+1/2, x'
'-y+1/2, z+1/2, -x'
'y+1/2, -z+1/2, -x'
'-y+1/2, -z+1/2, x'
'y+1/2, x+1/2, -z'
'-y+1/2, -x+1/2, -z'
'y+1/2, -x+1/2, z'
'-y+1/2, x+1/2, z'
'x+1/2, z+1/2, -y'
'-x+1/2, z+1/2, y'
'-x+1/2, -z+1/2, -y'
'x+1/2, -z+1/2, y'
'z+1/2, y+1/2, -x'
'z+1/2, -y+1/2, x'
'-z+1/2, y+1/2, x'
'-z+1/2, -y+1/2, -x'
'-x, -y, -z'
'x, y, -z'
'x, -y, z'
'-x, y, z'
'-z, -x, -y'
'-z, x, y'
'z, x, -y'
'z, -x, y'
'-y, -z, -x'
'y, -z, x'
'-y, z, x'
'y, z, -x'
'-y, -x, z'
'y, x, z'
'-y, x, -z'
'y, -x, -z'
'-x, -z, y'
'x, -z, -y'
'x, z, y'
'-x, z, -y'
'-z, -y, x'
'-z, y, -x'
'z, -y, -x'
'z, y, x'
'-x, -y+1/2, -z+1/2'
'x, y+1/2, -z+1/2'
'x, -y+1/2, z+1/2'
'-x, y+1/2, z+1/2'
'-z, -x+1/2, -y+1/2'
'-z, x+1/2, y+1/2'
'z, x+1/2, -y+1/2'
'z, -x+1/2, y+1/2'
'-y, -z+1/2, -x+1/2'
'y, -z+1/2, x+1/2'
'-y, z+1/2, x+1/2'
'y, z+1/2, -x+1/2'
'-y, -x+1/2, z+1/2'
'y, x+1/2, z+1/2'
'-y, x+1/2, -z+1/2'
'y, -x+1/2, -z+1/2'
'-x, -z+1/2, y+1/2'
'x, -z+1/2, -y+1/2'
'x, z+1/2, y+1/2'
'-x, z+1/2, -y+1/2'
'-z, -y+1/2, x+1/2'
'-z, y+1/2, -x+1/2'
'z, -y+1/2, -x+1/2'
'z, y+1/2, x+1/2'
'-x+1/2, -y, -z+1/2'
'x+1/2, y, -z+1/2'
'x+1/2, -y, z+1/2'
'-x+1/2, y, z+1/2'
'-z+1/2, -x, -y+1/2'
'-z+1/2, x, y+1/2'
'z+1/2, x, -y+1/2'
'z+1/2, -x, y+1/2'
'-y+1/2, -z, -x+1/2'
'y+1/2, -z, x+1/2'
'-y+1/2, z, x+1/2'
'y+1/2, z, -x+1/2'
'-y+1/2, -x, z+1/2'
'y+1/2, x, z+1/2'
'-y+1/2, x, -z+1/2'
'y+1/2, -x, -z+1/2'
'-x+1/2, -z, y+1/2'
'x+1/2, -z, -y+1/2'
'x+1/2, z, y+1/2'
'-x+1/2, z, -y+1/2'
'-z+1/2, -y, x+1/2'
'-z+1/2, y, -x+1/2'
'z+1/2, -y, -x+1/2'
'z+1/2, y, x+1/2'
'-x+1/2, -y+1/2, -z'
'x+1/2, y+1/2, -z'
'x+1/2, -y+1/2, z'
'-x+1/2, y+1/2, z'
'-z+1/2, -x+1/2, -y'
'-z+1/2, x+1/2, y'
'z+1/2, x+1/2, -y'
'z+1/2, -x+1/2, y'
'-y+1/2, -z+1/2, -x'
'y+1/2, -z+1/2, x'
'-y+1/2, z+1/2, x'
'y+1/2, z+1/2, -x'
'-y+1/2, -x+1/2, z'
'y+1/2, x+1/2, z'
'-y+1/2, x+1/2, -z'
'y+1/2, -x+1/2, -z'
'-x+1/2, -z+1/2, y'
'x+1/2, -z+1/2, -y'
'x+1/2, z+1/2, y'
'-x+1/2, z+1/2, -y'
'-z+1/2, -y+1/2, x'
'-z+1/2, y+1/2, -x'
'z+1/2, -y+1/2, -x'
'z+1/2, y+1/2, x'

_cell_length_a                   20.7988(12)
_cell_length_b                   20.7988(12)
_cell_length_c                   20.7988(12)
_cell_angle_alpha                90
_cell_angle_beta                 90
_cell_angle_gamma                90
_cell_volume                     8997.4(16)
_cell_formula_units_Z            4
_cell_measurement_temperature    100(2)
_cell_measurement_reflns_used    9512
_cell_measurement_theta_min      3.021
_cell_measurement_theta_max      44.089

_exptl_crystal_description       Block
_exptl_crystal_colour            Colorless
_exptl_crystal_density_meas      ?
_exptl_crystal_density_method    ?
_exptl_crystal_density_diffrn    1.291
_exptl_crystal_F_000             3371
_exptl_transmission_factor_min   ?
_exptl_transmission_factor_max   ?
_exptl_crystal_size_max          0.070
_exptl_crystal_size_mid          0.070
_exptl_crystal_size_min          0.050
_exptl_absorpt_coefficient_mu    0.899
_shelx_estimated_absorpt_T_min   0.940
_shelx_estimated_absorpt_T_max   0.956
_exptl_absorpt_correction_type   multi-scan
_exptl_absorpt_correction_T_min  0.703
_exptl_absorpt_correction_T_max  0.956
_exptl_absorpt_process_details   'SADABS-2014/4 - Bruker AXS, Madison WI'
_diffrn_ambient_temperature      100(2)
_diffrn_radiation_wavelength     0.7749
_diffrn_radiation_type           synchrotron
_diffrn_source                   
;
Advanced Light Source, station 11.3.1
;
_diffrn_radiation_monochromator  'silicon 111'
_diffrn_measurement_device_type  'Bruker D8 with PHOTON 100 detector'
_diffrn_measurement_method       '\f and \w shutterless scans'
_diffrn_detector_area_resol_mean 10.42
_diffrn_reflns_number            20604
_diffrn_reflns_av_unetI/netI     0.0489
_diffrn_reflns_av_R_equivalents  0.1085
_diffrn_reflns_limit_h_min       -37
_diffrn_reflns_limit_h_max       34
_diffrn_reflns_limit_k_min       -37
_diffrn_reflns_limit_k_max       37
_diffrn_reflns_limit_l_min       -34
_diffrn_reflns_limit_l_max       37
_diffrn_reflns_theta_min         3.020
_diffrn_reflns_theta_max         44.088
_diffrn_reflns_theta_full        27.706
_diffrn_measured_fraction_theta_max 0.993
_diffrn_measured_fraction_theta_full 0.991
_diffrn_reflns_Laue_measured_fraction_max 0.993
_diffrn_reflns_Laue_measured_fraction_full 0.991
_diffrn_reflns_point_group_measured_fraction_max 0.993
_diffrn_reflns_point_group_measured_fraction_full 0.991
_reflns_number_total             1406
_reflns_number_gt                1271
_reflns_threshold_expression     'I > 2\s(I)'
_reflns_Friedel_coverage         0.000
_reflns_Friedel_fraction_max     .
_reflns_Friedel_fraction_full    .

_reflns_special_details          
;
 Reflections were merged by SHELXL according to the crystal
 class for the calculation of statistics and refinement.
 
 _reflns_Friedel_fraction is defined as the number of unique
 Friedel pairs measured divided by the number that would be
 possible theoretically, ignoring centric projections and
 systematic absences.
;

_computing_data_collection       'Bruker APEX2 Bruker-AXS, Madison WI'
_computing_cell_refinement       'SAINT V8.34A Bruker-AXS, Madison WI'
_computing_data_reduction        'SAINT V8.34A Bruker-AXS, Madison WI'
_computing_structure_solution    'SHELXT 2014/4 Bruker-AXS, Madison WI'
_computing_structure_refinement  'SHELXL-2014/7 (Sheldrick, 2013)'
_computing_molecular_graphics    
;
Bruker SHELXTL Bruker-AXS, Madison WI
Diamond - Crystal and Molecular Structure Visualization
Crystal Impact - Dr. H. Putz & Dr. K. Brandenburg GbR, Kreuzherrenstr. 
102, 53227 Bonn, Germany
http://www.crystalimpact.com/diamond
and local programs
;
_computing_publication_material  'Bruker SHELXTL Bruker-AXS, Madison WI'
_refine_special_details          
;
 Refinement of F^2^ against ALL reflections.  The weighted R-factor wR and 
 goodness of fit S are based on F^2^, conventional R-factors R are based 
 on F, with F set to zero for negative F^2^. All non-hydrogen atoms were 
 refined anisotropically.
 Hydrogen atoms were placed geometrically and refined with a riding model. 
 No hydrogen atoms were refined on N1, O1B, O3, O4 or C3 due to the system 
 disorder and low occupancy.
 EADP restraints were placed on the pairs O2A and O2B as well as O1A and O1B
 due to their close proximity.
 All partial occupancies were refined freely before being fixed to their 
 final values.
;
# start Validation Reply Form
_vrf_PLAT973_NH2-UiO66           
;
PROBLEM: Check Calcd Positive Residual Density on     Zr1       3.53 eA-3  
RESPONSE: This electron density peak is within 7% of the Zr electron count, 
and lies on a heavy atom position.
;
_vrf_PLAT420_NH2-UiO66           
;
PROBLEM: D-H Without Acceptor       *O2B    -  *H2B    ..     Please Check 
RESPONSE: Acceptor is present (O3), but in slightly lower occupancy than 
the donor (O2B-H2B) from free refinement of the occupancies.
;
_vrf_PLAT601_NH2-UiO66           
;
PROBLEM: Structure Contains Solvent Accessible VOIDS of .        196 Ang3  
RESPONSE: Voids are expected in this porous MOF structure.
;
# end Validation Reply Form
_refine_ls_structure_factor_coef Fsqd
_refine_ls_matrix_type           full
_refine_ls_weighting_scheme      calc
_refine_ls_weighting_details     
'w=1/[\s^2^(Fo^2^)+(0.1749P)^2^+8.9078P] where P=(Fo^2^+2Fc^2^)/3'
_atom_sites_solution_primary     'intrinsic phasing'
_atom_sites_solution_secondary   difmap
_atom_sites_solution_hydrogens   geom
_refine_ls_hydrogen_treatment    constr
_refine_ls_extinction_method     none
_refine_ls_extinction_coef       .
_refine_ls_number_reflns         1406
_refine_ls_number_parameters     48
_refine_ls_number_restraints     0
_refine_ls_R_factor_all          0.0829
_refine_ls_R_factor_gt           0.0799
_refine_ls_wR_factor_ref         0.2226
_refine_ls_wR_factor_gt          0.2170
_refine_ls_goodness_of_fit_ref   1.127
_refine_ls_restrained_S_all      1.127
_refine_ls_shift/su_max          0.000
_refine_ls_shift/su_mean         0.000

loop_
_atom_site_label
_atom_site_type_symbol
_atom_site_fract_x
_atom_site_fract_y
_atom_site_fract_z
_atom_site_U_iso_or_equiv
_atom_site_adp_type
_atom_site_occupancy
_atom_site_site_symmetry_order
_atom_site_calc_flag
_atom_site_refinement_flags_posn
_atom_site_refinement_flags_adp
_atom_site_refinement_flags_occupancy
_atom_site_disorder_assembly
_atom_site_disorder_group
Zr1 Zr 0.11908(2) 0.0000 0.0000 0.00809(18) Uani 1 8 d S T P . .
O1A O 0.17116(13) 0.09361(13) 0.0000 0.0217(5) Uani 0.83 2 d S T P . 1
C1 C 0.15152(13) 0.15152(13) 0.0000 0.0209(8) Uani 0.83 4 d S T P . 1
C2 C 0.20235(15) 0.20235(15) 0.0000 0.0251(9) Uani 0.83 4 d S T P . 1
C3 C 0.2674(2) 0.1854(2) 0.0000 0.0349(10) Uani 0.83 2 d S T P . 1
N1 N 0.2940(9) 0.1188(8) 0.0000 0.043(5) Uani 0.2075 2 d S T P . 1
O1B O 0.1937(6) 0.0751(6) 0.0000 0.0217(5) Uani 0.17 2 d S T P . 2
O2A O 0.05061(17) 0.05061(17) 0.05061(17) 0.0106(6) Uani 0.5 6 d S T P . 3
O2B O 0.06753(18) 0.06753(18) 0.06753(18) 0.0106(6) Uani 0.5 6 d S T P . 4
H2B H 0.0948 0.0948 0.0948 0.013 Uiso 0.5 6 d R U P . 4
O3 O 0.1421(5) 0.1421(5) 0.1421(5) 0.086(7) Uani 0.45 6 d S T P . .
O4 O 0.3055(10) 0.0516(12) 0.0942(8) 0.035(4) Uani 0.1038 1 d . . P . .

loop_
_atom_site_aniso_label
_atom_site_aniso_U_11
_atom_site_aniso_U_22
_atom_site_aniso_U_33
_atom_site_aniso_U_23
_atom_site_aniso_U_13
_atom_site_aniso_U_12
Zr1 0.0054(2) 0.00943(19) 0.00943(19) 0.000 0.000 0.000
O1A 0.0135(9) 0.0172(10) 0.0343(13) 0.000 0.000 -0.0064(7)
C1 0.0161(10) 0.0161(10) 0.031(2) 0.000 0.000 -0.0096(12)
C2 0.0175(11) 0.0175(11) 0.040(3) 0.000 0.000 -0.0091(14)
C3 0.0191(14) 0.0184(14) 0.067(3) 0.000 0.000 -0.0077(11)
N1 0.019(6) 0.026(7) 0.082(15) 0.000 0.000 -0.015(5)
O1B 0.0135(9) 0.0172(10) 0.0343(13) 0.000 0.000 -0.0064(7)
O2A 0.0106(6) 0.0106(6) 0.0106(6) 0.0000(6) 0.0000(6) 0.0000(6)
O2B 0.0106(6) 0.0106(6) 0.0106(6) 0.0000(6) 0.0000(6) 0.0000(6)
O3 0.086(7) 0.086(7) 0.086(7) -0.030(5) -0.030(5) -0.030(5)
O4 0.035(9) 0.055(12) 0.015(6) 0.019(7) -0.004(6) -0.018(8)

_geom_special_details            
;
 All esds (except the esd in the dihedral angle between two l.s. planes)
 are estimated using the full covariance matrix.  The cell esds are taken
 into account individually in the estimation of esds in distances, angles
 and torsion angles; correlations between esds in cell parameters are only
 used when they are defined by crystal symmetry.  An approximate (isotropic)
 treatment of cell esds is used for estimating esds involving l.s. planes.
;

loop_
_geom_bond_atom_site_label_1
_geom_bond_atom_site_label_2
_geom_bond_distance
_geom_bond_site_symmetry_2
_geom_bond_publ_flag
Zr1 O2A 2.0600(12) 4 ?
Zr1 O2A 2.0600(12) 99 ?
Zr1 O2A 2.0600(12) 98 ?
Zr1 O2A 2.0601(12) . ?
Zr1 O1B 2.203(12) . ?
Zr1 O1B 2.203(12) 115 ?
Zr1 O1B 2.203(12) 17 ?
Zr1 O1B 2.203(12) 99 ?
Zr1 O1A 2.228(2) . ?
Zr1 O1A 2.228(2) 115 ?
Zr1 O1A 2.228(2) 99 ?
Zr1 O1A 2.228(2) 17 ?
O1A C1 1.272(3) . ?
C1 O1A 1.272(3) 13 ?
C1 C2 1.495(6) . ?
C2 C3 1.398(5) . ?
C2 C3 1.399(5) 13 ?
C3 C3 1.387(7) 181 ?
C3 N1 1.492(19) . ?
N1 O4 1.21(2) 17 ?
N1 O4 1.21(2) 115 ?
O2A Zr1 2.0600(12) 9 ?
O2A Zr1 2.0600(12) 5 ?
O2B Zr1 2.257(3) 5 ?
O2B Zr1 2.257(3) 9 ?
O2B H2B 0.9835 . ?
O4 N1 1.21(2) 115 ?
O4 O4 1.25(4) 115 ?

loop_
_geom_angle_atom_site_label_1
_geom_angle_atom_site_label_2
_geom_angle_atom_site_label_3
_geom_angle
_geom_angle_site_symmetry_1
_geom_angle_site_symmetry_3
_geom_angle_publ_flag
O2A Zr1 O2A 61.45(19) 4 99 ?
O2A Zr1 O2A 61.45(19) 4 98 ?
O2A Zr1 O2A 92.5(3) 99 98 ?
O2A Zr1 O2A 92.5(3) 4 . ?
O2A Zr1 O2A 61.46(19) 99 . ?
O2A Zr1 O2A 61.46(19) 98 . ?
O1B Zr1 O1B 60.2(4) . 115 ?
O1B Zr1 O1B 60.2(4) . 17 ?
O1B Zr1 O1B 90.4(7) 115 17 ?
O1B Zr1 O1B 90.4(7) . 99 ?
O1B Zr1 O1B 60.2(4) 115 99 ?
O1B Zr1 O1B 60.2(4) 17 99 ?
O1A Zr1 O1A 76.32(7) . 115 ?
O1A Zr1 O1A 121.81(16) . 99 ?
O1A Zr1 O1A 76.32(7) 115 99 ?
O1A Zr1 O1A 76.32(7) . 17 ?
O1A Zr1 O1A 121.81(16) 115 17 ?
O1A Zr1 O1A 76.32(7) 99 17 ?
C1 O1A Zr1 132.2(2) . . ?
O1A C1 O1A 127.5(4) 13 . ?
O1A C1 C2 116.26(19) 13 . ?
O1A C1 C2 116.26(19) . . ?
C3 C2 C3 119.2(4) . 13 ?
C3 C2 C1 120.4(2) . . ?
C3 C2 C1 120.4(2) 13 . ?
C3 C3 C2 120.4(2) 181 . ?
C3 C3 N1 113.3(6) 181 . ?
C2 C3 N1 126.3(7) . . ?
O4 N1 O4 124(3) 17 115 ?
O4 N1 C3 117.7(13) 17 . ?
O4 N1 C3 117.7(13) 115 . ?
Zr1 O2A Zr1 116.44(11) 9 5 ?
Zr1 O2A Zr1 116.44(11) 9 . ?
Zr1 O2A Zr1 116.44(11) 5 . ?
Zr1 O2B Zr1 101.76(18) 5 9 ?
Zr1 O2B Zr1 101.76(18) 5 . ?
Zr1 O2B Zr1 101.76(18) 9 . ?
Zr1 O2B H2B 116.4 5 . ?
Zr1 O2B H2B 116.4 9 . ?
Zr1 O2B H2B 116.4 . . ?
N1 O4 O4 157.5(10) 115 115 ?

_refine_diff_density_max         2.151
_refine_diff_density_min         -1.815
_refine_diff_density_rms         0.317

_shelx_res_file                  
;

    shelx.res created by SHELXL-2014/7


TITL NH2-UiO66.res in Fm-3m
CELL  0.77490  20.7988  20.7988  20.7988   90.000   90.000   90.000
ZERR     4.00   0.0012   0.0012   0.0012    0.000    0.000    0.000
LATT   4
SYMM  - X, - Y,   Z
SYMM  - X,   Y, - Z
SYMM    X, - Y, - Z
SYMM    Z,   X,   Y
SYMM    Z, - X, - Y
SYMM  - Z, - X,   Y
SYMM  - Z,   X, - Y
SYMM    Y,   Z,   X
SYMM  - Y,   Z, - X
SYMM    Y, - Z, - X
SYMM  - Y, - Z,   X
SYMM    Y,   X, - Z
SYMM  - Y, - X, - Z
SYMM    Y, - X,   Z
SYMM  - Y,   X,   Z
SYMM    X,   Z, - Y
SYMM  - X,   Z,   Y
SYMM  - X, - Z, - Y
SYMM    X, - Z,   Y
SYMM    Z,   Y, - X
SYMM    Z, - Y,   X
SYMM  - Z,   Y,   X
SYMM  - Z, - Y, - X
SFAC  C    H    N    O    ZR
DISP C  0.004   0.002  8.55
DISP N 0.008  0.004  17.46
DISP O  0.013   0.007  32.03
DISP Zr -1.786  0.66  3082.63
UNIT  159.56 15.92 20 162.24 24
MERG   2
EADP O2a O2b
EADP O1a O1B
FMAP   2
PLAN   20
BOND   $H
LIST   4
SIZE 0.07 0.07 0.05
ACTA
L.S.  20
TEMP  -173.00
WGHT    0.174900    8.907800
FVAR       0.14638
ZR1   5    0.119076    0.000000    0.000000    10.12500    0.00543    0.00943 =
         0.00943    0.00000    0.00000    0.00000
PART    1
O1A   4    0.171162    0.093608    0.000000    10.41500    0.01351    0.01719 =
         0.03432    0.00000    0.00000   -0.00640
C1    1    0.151518    0.151518    0.000000    10.20750    0.01612    0.01612 =
         0.03055    0.00000    0.00000   -0.00960
C2    1    0.202350    0.202350    0.000000    10.20750    0.01753    0.01753 =
         0.04038    0.00000    0.00000   -0.00915
C3    1    0.267422    0.185424    0.000000    10.41500    0.01912    0.01838 =
         0.06715    0.00000    0.00000   -0.00772
N1    3    0.293967    0.118772    0.000000    10.10375    0.01941    0.02626 =
         0.08228    0.00000    0.00000   -0.01454
PART    2
O1B   4    0.193744    0.075135    0.000000    10.08500    0.01351    0.01719 =
         0.03432    0.00000    0.00000   -0.00640
PART    3
O2A   4    0.050611    0.050611    0.050611    10.08333    0.01063    0.01063 =
         0.01063   -0.00002   -0.00002   -0.00002
PART    4
O2B   4    0.067530    0.067530    0.067530    10.08333    0.01063    0.01063 =
         0.01063   -0.00002   -0.00002   -0.00002
AFIX   3
H2B   2    0.094839    0.094825    0.094825    10.08333   -1.20000
AFIX   0
PART    0
O3    4    0.142125    0.142125    0.142125    10.07500    0.08589    0.08589 =
         0.08589   -0.03014   -0.03014   -0.03014
O4    4    0.305457    0.051595    0.094153    10.10375    0.03537    0.05463 =
         0.01510    0.01903   -0.00420   -0.01790
HKLF    4

REM  NH2-UiO66.res in Fm-3m
REM R1 =  0.0799 for    1271 Fo > 4sig(Fo)  and  0.0829 for all    1406 data
REM     48 parameters refined using      0 restraints

END

WGHT      0.1748     12.5387

REM Highest difference peak  2.151,  deepest hole -1.815,  1-sigma level  0.317
Q1    1   0.2500  0.2500  0.1346  10.25000  0.05    1.47
Q2    1   0.3066  0.1934  0.1934  10.16667  0.05    1.40
Q3    1   0.4629  0.0371  0.0371  10.16667  0.05    1.39
Q4    1   0.2512  0.0000  0.0000  10.12500  0.05    1.34
Q5    1   0.2492  0.1170  0.1170  10.50000  0.05    1.15
Q6    1   0.2019  0.1532  0.1532  10.50000  0.05    1.08
Q7    1   0.5000  0.0000  0.0000  10.02083  0.05    1.05
Q8    1   0.4298  0.0321  0.0702  10.50000  0.05    1.03
Q9    1   0.2510  0.0655  0.0000  10.50000  0.05    1.02
Q10   1   0.3866  0.1134  0.0000  10.25000  0.05    1.02
Q11   1   0.0000  0.0397  0.0000  10.12500  0.05    0.98
Q12   1   0.2499  0.1398  0.1545  11.00000  0.05    0.98
Q13   1   0.2854  0.2146  0.0000  10.25000  0.05    0.97
Q14   1   0.0000  0.0000  0.0000  10.02083  0.05    0.92
Q15   1   0.2405  0.0604  0.0604  10.50000  0.05    0.91
Q16   1   0.3397  0.0573  0.0573  10.50000  0.05    0.88
Q17   1   0.1777  0.1777  0.2770  10.50000  0.05    0.88
Q18   1   0.0316  0.0819  0.0819  10.50000  0.05    0.88
Q19   1   0.3581  0.0000  0.0000  10.12500  0.05    0.87
Q20   1   0.2875  0.2124  0.2124  10.16667  0.05    0.85
;
_shelx_res_checksum              8815

_shelx_hkl_file                  
;
   0  -2   2 1354.96  133.49
   2   0   2 1274.57  133.39
   2   2   0 1354.06  133.09
  -2  -2  -2 1218.98  124.19
  -1  -1   3  451.35   43.40
  -1   1   3  421.46   42.20
   1  -3  -1  439.56   41.90
   1  -1   3  408.36   41.90
   1   1   3  370.16   42.20
   1   3   1  362.06   42.50
   3  -1   1  445.76   42.00
  -3  -3   1 1175.98  109.39
  -3  -1   3  982.20  104.99
  -3   1   3 1115.19  105.29
  -1  -3   3  937.31  105.59
   1  -3   3 1057.59  106.09
   3   1   3  939.21  104.89
   3   3   1 1142.09  105.19
   3  -3   3 1386.26  139.99
   0   4   0 6504.85  651.73
  -4   0   2 1116.49   99.09
   0  -2   4  862.91   99.79
   2  -4   0  921.51   99.49
   2   4   0  897.31  100.29
  -4  -2   0 1079.49  104.79
   0  -4  -2 1071.79   99.39
  -2  -2   4  105.59   13.20
  -2   2  -4   90.19   13.20
  -2   4  -2   76.79   24.00
   2  -2  -4  125.49   12.90
   2  -2   4  113.29   14.30
   2   4  -2  122.49   20.20
   4  -2   2  111.59   14.20
   4   2   2  130.29   12.40
   0  -4  -4 2340.37  215.28
   0  -4   4 2131.59  214.28
   4   4   0 1935.41  213.18
  -4   4   2 3244.58  337.37
  -2  -4   4 3659.83  336.27
  -2  -4   4 2915.71  337.37
   2  -4   4 3446.46  336.87
   4  -2   4 3858.11  336.77
   4   2   4 3031.00  335.87
   4   4   4 2063.29  207.78
  -5  -1   1  698.83   66.79
  -5   1   1  630.54   68.49
  -1   1   5  741.03   67.99
  -1   5  -1  682.33   73.29
   1  -1   5  679.23   68.09
   1  -1   5  604.04   66.89
   1   1   5  610.04   67.59
   1   1   5  719.53   66.69
   1   5  -1  596.74   70.69
   5  -1   1  687.83   67.69
   5   1   1  605.64   66.99
   5   1   1  710.63   67.19
   1   5   3 1195.68  122.09
  -5   1   3 1357.26  121.59
   1  -3   5 1321.07  122.59
   3   5  -1 1141.39  123.09
  -3  -1   5 1283.47  125.59
   1   3   5 1074.49  121.89
  -1   3  -5 1250.47  121.39
  -1  -3   5 1268.07  122.29
  -3   1   5 1279.67  121.89
  -1  -5  -3 1097.29  121.49
  -5  -1   3 1374.46  121.09
   3  -1   5 1085.99  122.29
   5  -1  -3 1159.08  121.59
   5   3  -1 1068.69  120.79
  -3   3   5 2223.18  215.18
  -3   5   3 1986.60  216.08
   3  -5  -3 2295.27  214.88
   3  -3   5 2243.98  215.78
   3   3   5 2408.86  215.48
   3   5  -3 2116.49  217.98
   3   5   3 1915.81  214.98
   5  -3   3 1961.50  215.68
  -5   1   5 1210.08  128.89
  -5   5   1 1360.76  133.29
  -1  -5   5 1284.37  129.99
   1  -5   5 1292.57  130.39
   5  -1   5 1401.06  128.99
   5   1   5 1374.66  129.89
   5   1   5 1148.79  128.69
   5   5  -1 1199.08  128.89
  -5   5   3 3178.38  335.07
  -3  -5  -5 3459.25  334.47
  -3   5   5 3816.12  334.07
   5  -3   5 3197.68  334.37
   5   3   5 3018.10  333.57
   0   6   0 9115.89  912.81
  -6   0   2   51.79    6.70
  -2   6   0   20.70   13.60
   0  -2  -6   30.50   10.10
   0  -2   6   39.60    8.50
   0   2   6   52.39    7.40
   2  -6   0   49.30    7.10
   2   6   0   31.00    9.90
   6   0  -2   30.90    5.80
   6   0   2   38.00    7.40
   6   0   2   37.60    6.20
   6   2   0   45.80    5.60
   0   6  -2   43.70   13.70
   0   6   2   29.10    9.10
  -2   0   6   41.60    7.50
  -2   0   6   43.00    9.70
   0  -6  -2   39.90    6.10
   6  -2   2  684.43   70.69
   6   2   2  658.93   69.59
   2   2   6  596.94   70.19
  -6  -2   2  711.13   77.99
  -2  -2   6  654.33   70.19
  -2   2  -6  706.73   70.29
   2  -6  -2  719.43   70.29
   4  -6   0  255.67   30.80
  -6   0   4  274.87   30.20
  -4   6   0  305.47   39.60
   0   4   6  278.77   31.60
   4   0   6  301.47   30.30
  -6  -4   0  269.67   39.40
  -4   0   6  334.87   31.00
  -4   0   6  342.57   37.90
   6  -2   4 1325.47  123.29
   6   4   2 1105.69  121.89
   2  -6  -4 1314.07  121.79
  -4  -2   6 1069.89  122.19
  -4   6   2 1316.77  125.59
  -6  -2   4 1049.20  121.39
   2  -4  -6 1133.19  121.39
   2   4   6 1140.19  122.69
  -2   4  -6 1349.47  121.79
   6   2   4 1369.26  122.79
   6   2   4 1091.59  121.89
   6   4  -2 1147.89  121.29
  -2  -4   6 1363.06  122.89
  -6  -4   4 4120.79  409.76
  -4  -6  -4 3964.30  405.26
  -4  -4  -6 3507.45  404.96
  -4   6   4 4668.23  404.86
   4  -4   6 3643.44  403.96
   4   6  -4 4512.95  406.86
   6  -4   4 3813.52  404.16
  -6   0   6  241.78   27.70
  -6   0   6  318.27   38.30
  -6  -2   6  536.25   54.39
  -6  -2   6  563.44   63.49
  -6   2   6  576.04   54.69
  -6   6   2  528.85   58.69
  -2  -6  -6  558.54   53.89
  -2  -6   6  425.56   55.29
   2  -6  -6  551.04   53.79
   2  -6   6  536.35   56.79
   6   2   6  482.95   55.29
   6   6   2  518.05   54.49
  -6  -6   4 3986.00  432.36
  -4  -6  -6 4674.53  428.76
  -4   6   6 4140.79  427.26
   6  -6   6 6137.49  552.74
   6   6   6 4885.21  550.74
  -7  -1   1 6452.25  655.23
  -7   1   1 6138.39  656.53
  -1   7   1 7116.39  658.43
   7  -1   3   39.50    9.50
   3   1   7   61.89    6.20
  -3   1  -7   43.30   11.10
  -1  -3  -7   49.70   13.30
   1  -7  -3   64.69    6.90
  -1   3   7   62.79    7.60
  -3  -1   7   54.89    8.80
   1  -3   7   44.80    7.10
  -1  -7   3   58.49    8.80
   3   1   7   49.50   10.00
  -7   3  -1   34.90   15.20
   1   7  -3   40.90   16.00
   1   3   7   55.79    8.60
   3  -1   7   42.80   10.10
  -3   7  -1   25.80   16.90
  -1  -7  -3   43.40    7.00
   3  -1   7   63.69    6.90
  -1  -3   7   41.30    9.10
  -1  -3   7   43.40    8.00
  -1   7   3   55.39   10.70
  -1   3  -7   55.39    7.40
  -3  -7   1   59.49   11.90
  -7  -1   3   60.49    6.10
   7   1   3   45.10    8.20
  -3   1   7   54.39    8.60
  -3   1   7   41.80   12.30
  -7   3   1   54.79   14.30
   3   7   1   56.79   10.60
  -7   3   3  206.58   21.20
  -3  -7  -3  149.69   20.50
   3   7   3  169.48   19.70
  -3   7   3  151.78   23.30
  -7  -3   3  205.18   31.80
   3  -3  -7  163.38   19.90
   3  -7  -3  183.98   19.60
  -3   3   7  169.48   23.00
  -3   7  -3  226.18   35.10
   5   7  -1  218.58   22.40
   7   5   1  166.48   19.90
   1  -7  -5  174.88   19.70
   1  -7  -5  201.48   23.80
   7  -1   5  157.98   22.00
  -7   1   5  189.88   20.10
  -5  -7  -1  198.28   26.40
  -7   5  -1  161.28   31.80
   5   1   7  204.18   21.80
  -1  -5   7  220.98   22.20
   7  -5   1  186.08   20.70
  -5   7  -1  205.58   33.90
   7   5  -1  180.48   19.40
  -1  -7  -5  174.28   19.70
   5   7   1  196.38   20.80
   7  -1  -5  185.48   20.30
   1  -5  -7  169.88   19.00
  -5   1   7  190.18   21.00
  -5  -7   1  213.88   27.30
  -7   5   1  225.48   27.90
  -5   7   3  823.62   84.99
   5   7  -3  711.23   84.59
  -3   5   7  883.21   82.79
  -5  -3   7  908.31   82.39
   3  -5   7  749.73   83.49
  -3  -5  -7  746.33   81.89
   3   7   5  787.42   83.69
   5   3   7  904.21   81.39
  -7  -5  -3  910.21   90.59
  -7  -3   5  791.32   81.19
   3   7  -5  740.73   87.69
  -3  -5   7  765.02   82.49
   7  -3  -5  899.11   82.09
   5   7   3  685.03   81.99
  -5   5  -7 3918.61  391.26
   5  -5   7 4453.65  393.56
   5   5   7 3372.46  391.56
  -7   1   7 4352.46  485.35
  -1  -7   7 5173.98  487.05
   1  -7  -7 4324.47  487.15
   7   1   7 5590.14  487.05
  -7  -7  -3  514.85   68.19
  -7  -3   7  597.94   61.59
  -7   3   7  569.34   61.99
  -3  -7   7  685.03   63.39
   3  -7  -7  627.14   61.09
   3  -7   7  630.84   64.39
   7   3   7  580.84   62.89
  -7  -7  -5  109.19   20.60
  -7  -5  -7   69.89   19.00
  -7  -5   7   95.89   12.60
  -5  -7  -7  119.59   16.30
  -5   7   7   90.19   13.90
   5  -7   7  119.69   17.20
   5  -7   7  107.99   13.10
   5   7   7   88.09   14.00
   7  -7  -5  102.89   12.40
   7   5   7   98.59   13.70
   7   7  -5  127.39   18.60
  -7  -7  -7 2260.87  244.28
  -7  -7   7 2284.37  245.68
   7  -7  -7 2591.54  240.48
  -8   0   0 7218.48  790.12
   0   8   0 8569.44  792.32
  -8   0   2  374.06   44.90
  -2   8   0  430.76   52.29
   0  -2   8  468.85   46.70
   0   2   8  396.86   44.00
   2   8   0  491.25   49.20
   8   0   2  480.75   45.90
   8   2   0  415.96   44.50
   0   8  -2  406.06   52.89
   0   8   2  424.36   48.40
   2   0   8  460.55   46.80
   0  -8  -2  461.75   45.50
  -2   0  -8  449.26   47.20
  -2  -2  -8  686.73   82.79
  -2  -2   8  750.02   81.39
  -2   2   8  778.22   81.19
  -2  -8  -2  784.82   81.29
   2  -2   8  803.92   80.19
   2   2   8  742.23   79.39
   2   8  -2  937.51   86.79
   8   2   2  716.63   80.39
   2  -8  -2  936.51   81.99
   8  -2   2  837.22   81.89
  -4   0   8    6.30    4.30
  -4   0   8    0.70    8.50
   0  -8  -4    1.00    2.60
   0   8  -4    3.20   14.30
   0   8   4    6.40    6.10
   4   0   8   -0.20    5.40
   8   0   4    4.30    3.40
  -4   8   0    2.70   13.00
   0  -4  -8   -2.80    5.30
   0  -4   8    3.50    5.70
   0  -4   8   -4.50    2.50
   0   4   8   -1.80    3.80
   4  -8   0   -2.00    3.40
   4   8   0    3.50    6.50
   8   0  -4    3.70    3.20
   8   0   4    1.10    4.90
  -8   0   4    4.00    2.50
  -8   4   0    3.30   12.40
   4   0   8   -0.50    2.20
   8   4   0    1.20    2.20
  -8  -4   0   -5.80   14.20
   2  -8  -4   57.49    6.60
  -4  -8  -2   54.99   11.40
  -2  -4  -8   34.80   10.90
  -4  -2   8   29.30    8.50
  -4   2  -8   34.70    9.90
  -2   4   8   49.40    9.10
  -2   4   8   35.70   11.20
   2  -4   8   44.50   10.60
  -4   8   2   47.20   13.50
   4   2   8   47.40   10.00
   4   8  -2   46.00   12.00
  -8   4  -2   62.39   19.40
   8  -2   4   43.70   10.00
  -8   2   4   43.80    7.60
   8  -4  -2   46.50    7.60
   4   2   8   42.40    5.70
   4  -2   8   63.99   11.30
  -8   4   2   55.59   12.90
  -2  -4   8   42.60    9.30
  -2   4  -8   57.69    7.30
  -4   2   8   35.90   14.20
   8   2   4   52.19    8.30
   2   8  -4   14.90   14.20
  -8  -2   4   43.40    5.30
  -4   8  -2   95.39   27.30
  -8   4   4  833.62   79.49
  -8  -4   4  678.93   87.39
  -4   4  -8  748.13   78.39
  -4   8   4  676.53   80.09
   4  -8  -4  790.82   78.19
   4  -4   8  851.11   79.89
   4   4   8  688.73   78.69
   4   8   4  717.13   79.79
   8  -4   4  722.13   80.09
  -4  -4   8  878.81   78.89
  -4  -4   8  754.12   83.99
   0  -8  -6 5478.15  547.55
   0   8   6 5305.47  545.95
  -6   0   8 5591.04  552.84
   8   6   2 2815.92  337.07
   2  -6   8 3239.58  339.17
  -8  -6   2 3580.44  346.47
  -2   6   8 3518.45  338.47
  -8   6  -2 3396.96  345.17
   6   8  -2 2989.80  338.27
  -6  -2   8 3166.18  337.57
  -2  -8  -6 3628.04  337.07
   2   6   8 3739.53  338.57
  -6   2   8 3317.57  337.77
  -8   6   2 3446.86  341.07
  -8  -6  -2 3333.27  345.67
  -2   8   6 3752.92  338.57
   6   8   2 3224.28  337.57
   6  -2   8 3751.12  339.37
   6  -2   8 3078.29  337.27
  -4  -6  -8    1.10    3.50
   8  -4   6   -1.40    6.10
   8  -4   6    1.00    2.70
   6   8  -4   -0.10    8.40
   6   4   8    1.00    1.90
   8  -6  -4    1.50    3.00
  -6  -4   8   -0.70    3.50
  -6   8   4   -1.90    7.60
  -8   6  -4  -10.50   15.30
  -4  -8   6   -5.20    7.20
   6   4   8    1.50    4.70
   4   8   6    1.00    4.60
  -8   4   6   -1.20    3.10
  -6  -8  -4   -2.90    7.00
   8   6   4   -1.20    3.20
   6  -4  -8    1.30    1.80
  -4   6   8    0.70    4.40
   4  -8  -6   -0.10    1.60
   4  -8  -6   -0.80    4.00
   8  -4  -6   -0.50    2.30
   8   4   6    0.60    2.00
  -8  -4   6   -0.20    2.50
   8   4   6   -0.10    5.40
  -8   6   4   -3.60    6.20
   4   6   8    0.80    4.90
   6  -8  -4    0.20    2.60
  -4  -8  -6   -1.90    4.60
   4  -6  -8    0.80    1.90
  -4   8   6   -0.50    3.90
  -4  -6   8    2.20    7.10
  -4   6  -8    2.90    2.20
   4  -8   6    0.50    3.00
   4   8  -6    2.00   11.80
   4  -6  -8   -1.00    4.00
  -4  -6   8    2.80    4.70
   6  -4   8    3.50    5.00
   6  -4   8    0.80    2.70
  -8  -4   6   -1.10   14.00
   6   8   4    2.30    4.00
   8   6  -4    1.70    3.40
  -6   8  -4   -1.90   19.40
  -6   4   8    3.80    3.90
  -8  -6  -6  234.28   33.20
  -6  -8  -6  215.38   29.10
  -6  -6   8  204.88   24.70
  -6  -6   8  173.58   30.20
  -6   6  -8  243.98   24.30
  -6   8   6  226.08   26.80
   6  -6   8  237.68   27.10
   8  -6   6  269.97   28.50
   8   6  -6  194.48   27.50
   8   6   6  206.88   24.80
  -8   2   8 4176.28  458.85
  -8   8  -2 3740.63  469.95
  -8   8   2 5072.59  463.85
  -2  -8   8 5010.10  460.75
   2  -8   8 4854.81  461.25
   8   2   8 4508.55  460.05
   8   8  -2 4715.73  458.45
  -8  -4   8  499.95   49.80
  -4  -8   8  502.85   51.69
   4  -8  -8  538.65   49.50
   4  -8   8  402.16   51.89
   8   4   8  463.95   51.29
   8   8  -4  451.05   50.69
  -8  -6  -8 2866.11  303.67
  -8  -6   8 2824.92  297.17
  -8   6   8 2763.02  298.67
  -6  -8  -8 3037.70  300.27
  -6  -8   8 2900.61  302.07
   6  -8   8 3423.56  300.77
   6  -8   8 2603.04  297.57
   8   8  -6 3319.27  300.57
  -8   8  -8 4606.74  456.95
  -8   8   8 4469.45  458.75
   8  -8   8 4159.28  460.55
   8   8   8 5048.40  459.05
  -9   1  -1 2638.24  260.67
  -1  -1   9 2108.79  256.27
  -1   1   9 2774.22  256.47
   1  -1   9 2783.12  257.97
   1  -1   9 2504.15  256.07
   1   1   9 2293.97  257.37
   9   1   1 2820.52  256.67
  -9  -3   1   22.70   17.40
  -9   1   3   58.49    8.50
  -3   9   1   23.30   13.60
  -3   1  -9   47.10   11.00
   9  -1   3   62.59   10.40
  -1   3   9   60.49   10.00
   1  -3   9   58.79   11.30
   1  -3   9   39.00    7.00
   1  -9  -3   53.69   11.60
   3   9  -1   71.19   15.30
  -3  -1   9   44.20    9.40
  -9   3  -1   72.89   21.00
  -1   9  -3   27.10   17.30
   9   3   1   53.29    7.30
   3   1   9   43.60   10.50
   3  -9  -1   59.49    8.60
  -1  -9  -3   52.39    7.40
   9   1   3   56.39    8.90
  -9  -1   3   55.69    5.80
   3  -1   9   52.59   10.90
   9  -3   1   46.10    8.10
  -3  -9   1   38.40    9.90
  -9   3   1   87.89   16.30
  -3  -1  -9   30.90   10.80
   1   9  -3   29.70   18.30
   3   9   1   46.60   11.70
  -1  -3   9   55.89   10.50
  -1  -3   9   61.49    7.90
  -3   1   9   44.60    9.90
   1   3   9   44.30    9.60
  -1   9   3   37.00   11.20
   3  -9  -3   10.80    3.50
  -3   9   3    4.50    9.30
  -3   9  -3   22.80   18.50
   3   9   3    9.60    5.30
  -9   3   3   18.50    6.40
  -3  -9  -3   17.80    5.40
   9   3   3   10.50    4.30
  -3  -9   3    7.40    6.20
  -3  -3  -9    5.20    8.40
  -3  -3   9   10.10    5.10
  -3  -3   9   11.50    6.30
   3   9  -3    9.20   11.80
  -3   3   9    6.90    4.70
  -3   3   9    9.40    7.90
   9  -3  -3   16.80    4.80
   9  -3   3   12.90    6.90
   3   3   9    8.60    4.70
   3   3   9   12.70    2.00
   3  -9  -3   18.60    5.50
   3  -3  -9    7.20    5.00
   3  -3   9    8.00    6.70
   3  -3   9    7.00    3.10
  -5  -1   9  997.80  106.79
  -9   1   5 1107.99  105.89
  -5  -1   9 1196.08  112.99
   9  -1   5 1086.49  107.49
  -9   5  -1  835.32  115.69
  -1   5   9 1151.98  107.29
   5   1   9 1201.88  105.69
   5  -1   9  896.81  107.19
   1  -5  -9 1006.60  107.99
   5   9   1  965.90  106.89
   9   1   5 1053.59  107.09
  -5  -9  -3    9.90    7.50
   5   3   9   15.90    6.60
  -3   5   9   28.90    8.10
  -3   5   9    9.70    8.60
   3  -5   9   20.60    7.60
   3  -9  -5   25.40    4.20
   5   3   9   27.80    3.70
  -9   3   5   21.10    5.80
  -9   5  -3   10.50   15.40
   9  -3   5   22.60    7.90
  -3   9  -5   14.00   18.00
  -5  -3   9   19.50    5.80
  -5   3  -9   20.50    6.90
  -5   9   3   12.40   10.50
   9   5   3   11.60    4.60
   3   9   5   19.20    6.20
  -5  -3   9   32.40   11.70
  -5   3   9   20.80    5.90
   3   5   9   28.50    7.00
   5  -9  -3   12.40    4.20
  -3   9   5   18.40    8.90
  -9  -5  -3   26.70   16.10
   5  -3   9   31.60    8.90
  -5   3   9   16.40   13.20
  -9   5   3   34.30    9.90
   9   3   5   17.90    5.80
  -5   9  -3   27.40   32.20
  -9  -3   5    2.30   16.00
   3   9  -5   19.80   14.70
  -3  -9  -5   17.20    4.90
   5  -9  -5  395.56   39.60
  -5  -9  -5  319.57   41.70
  -5  -5  -9  324.17   42.20
  -5  -5   9  398.66   40.50
  -5   5  -9  377.56   40.10
   9  -5   5  392.36   42.80
   5  -5  -9  367.16   39.00
   5  -5   9  393.56   42.50
   5  -5   9  427.06   40.40
   9  -5   5  381.96   40.20
   9  -1   7 4715.23  454.95
   7   9  -1 4539.45  453.75
  -1  -7  -9 4035.60  455.95
  -1  -7   9 4314.27  453.95
  -7   9  -1 4976.90  462.15
  -9  -7  -1 4632.74  462.55
   1  -7  -9 4558.54  455.55
   9  -3   7 1604.94  148.59
   3  -7   9 1248.38  148.09
  -3  -9   7 1364.56  147.89
   9   7   3 1496.65  146.19
   3  -9  -7 1222.98  145.39
  -7  -9  -3 1512.75  151.98
  -9   3   7 1576.94  146.59
  -7   3   9 1443.86  146.59
  -3  -9  -7 1612.64  145.89
   9   3   7 1394.06  146.39
  -3  -7   9 1340.47  147.39
   3  -7  -9 1563.84  145.19
   7  -3   9 1374.26  147.89
   7  -3   9 1534.35  146.39
   9   7   5  205.08   24.00
   7  -5  -9  201.38   22.60
   5  -7   9  244.78   26.80
   5   9   7  215.98   24.90
  -9   5   7  189.48   23.80
  -7  -9  -5  266.97   30.30
   5  -9  -7  231.68   23.10
  -7   5  -9  183.18   24.60
  -7  -5   9  179.28   31.40
  -5   7   9  187.68   24.30
  -9  -7  -5  266.47   35.70
  -9   7   5  251.17   26.70
   7  -9  -5  189.58   23.00
  -9  -5   7  171.68   34.70
  -7   9  -5  176.68   35.70
   5  -9   7  212.98   24.00
  -5  -7   9  242.68   28.90
   7  -5   9  202.58   26.00
   5   7   9  238.88   25.40
  -9  -7  -7 2417.16  290.27
  -7  -9   7 2893.21  289.67
  -7  -7  -9 2604.74  287.47
  -7  -7   9 2550.84  283.97
  -7   7  -9 3031.10  283.37
   7  -7   9 2575.44  285.97
   7   9  -7 3089.59  289.27
   9  -7  -7 3214.08  284.27
   9   7  -7 3052.79  286.37
  -9  -1   9 2626.04  260.87
  -9   1   9 2094.89  257.97
  -9   9  -1 2686.63  258.87
  -9   9   1 2467.65  255.77
  -1   9   9 2639.14  250.97
   1   9   9 2644.74  251.07
   9  -1   9 2241.58  251.07
  -9  -9   3 1391.86  174.28
  -9  -3   9 1733.03  167.18
  -3  -9  -9 1854.51  165.98
  -3  -9   9 1700.43  169.18
   3  -9   9 1753.92  170.18
   3   9   9 1418.66  168.08
   9  -3   9 1797.72  169.58
   9   3   9 1892.11  169.08
   9   9  -3 1599.34  166.68
   9   9   3 1422.96  166.98
  -9  -5   9 1525.65  143.79
  -9   9   5 1568.94  147.29
  -5   9   9 1533.05  145.39
   5  -9   9 1246.68  146.09
   5   9   9 1376.16  145.09
   9  -5  -9 1400.86  143.49
   9  -5   9 1215.78  145.89
   9   9  -5 1500.75  144.59
  -9   7  -9 2445.56  269.97
   7  -9   9 2921.61  273.37
   7   9   9 2350.26  270.37
   9  -9  -7 3027.10  270.37
   9  -7   9 2493.85  272.27
   9   9  -7 2431.56  272.07
   9   9   7 3120.79  270.77
   9  -9  -9 2114.89  218.38
   9   9  -9 2223.48  223.38
   0  10   0 8078.89  811.02
 -10   0   2  615.34   62.89
  -2 -10   0  657.53   63.89
   0  -2  10  579.24   64.39
   0   2  10  716.13   61.69
  10   0   2  603.74   63.49
  10   0   2  536.75   63.09
   0 -10  -2  622.24   63.19
   0  10   2  574.44   66.49
   2   0  10  614.84   64.49
  -2   0  10  594.14   63.49
 -10   2   0  611.34   67.49
   2  -2  10   34.30    4.90
   2  -2  10   23.80    8.10
  -2  10   2   41.50   13.80
 -10  -2   2   25.70   19.00
 -10   2   2   28.60    9.70
  -2  -2  10   26.80    9.00
  -2  -2  10   16.50    6.10
  -2   2  10   29.50    8.50
  -2  10  -2   -1.60   14.70
  10   2   2   22.70    6.60
   2 -10  -2   16.90    7.20
   2  10  -2   30.90   14.40
   2   2  10   20.10    7.30
   2   2  10   29.80    3.70
  10   4   0  492.45   46.00
   4   0  10  448.86   46.30
   4   0  10  531.05   51.29
 -10   4   0  397.26   52.59
  -4   0  10  391.66   47.60
  -4   0  10  403.76   50.89
 -10   0   4  380.96   46.00
   0   4  10  447.66   48.50
   4 -10   0  506.65   47.80
   0  -4  10  534.75   49.40
   4   2  10  837.52   83.79
  10   4   2  741.23   84.29
   2 -10  -4  904.61   84.79
  -2   4  10  878.01   84.79
 -10   4  -2  837.02   97.29
  -4  -2  10  766.52   88.09
  10  -2   4  842.22   86.39
  -4  -2  10  939.91   86.39
  -2   4  10  847.72   85.89
   4 -10  -2  749.23   84.89
  -4  10  -2  801.42   94.49
   4  10   2  827.02   86.09
  -2  -4  10  826.42   86.19
  10   2   4  847.32   85.29
  10   2   4  826.32   84.79
   2  10  -4  790.62   92.49
   4  -2  10  897.21   87.29
 -10   4   2  923.91   87.89
  -2  10   4  705.13   87.19
  -4   2  10  843.42   85.49
  -4   4  10  925.31   85.69
  -4   4  10  736.43   87.69
   4  -4  10  857.51   84.49
   4   4  10  782.92   85.39
   4  10   4  862.41   85.29
  -4  10  -4  770.52   95.29
  10   0   6 2393.06  237.28
   6   0  10 2318.07  237.68
   0 -10  -6 2496.75  239.08
   0  10  -6 2216.88  243.98
  10   6   0 2323.77  235.18
 -10   6  -2   69.59   22.50
  -2  -6 -10   93.99   18.10
  -2   6  10  101.49   11.70
   2 -10  -6   89.89   10.10
   2  -6  10  104.89   15.20
   6  10  -2   92.99   15.40
  -6 -10  -2   90.59   16.50
   2  10   6   72.99   13.20
  10  -2   6   79.09   14.20
   6   2  10   63.29   13.30
   6   2  10   96.99   10.30
  -6   2 -10   95.39   15.20
  10   6   2   73.39   10.80
 -10   2   6   88.29   11.20
  10   2   6   64.29   12.30
   2  -6 -10   76.99   14.10
 -10  -2   6   76.89    9.70
   6  10   2   71.59   11.50
   6  -2  10   85.29   14.90
 -10   6   2   88.49   18.00
   2   6  10   79.09   13.60
   2  10  -6   45.80   19.30
  -6  10  -2  111.69   29.80
  10  -2  -6   67.79   11.20
  -2  -6  10   83.89   13.50
  -6   2  10   85.09   12.20
  10  -6   2   79.19   11.30
 -10  -2   6   42.00   22.60
 -10   4   6  294.57   34.60
  -6  -4  10  333.17   34.90
  -4  10  -6  354.66   46.90
   4 -10  -6  355.06   33.50
  10   6   4  325.07   34.20
   4  -6  10  319.67   36.40
   6   4  10  330.87   35.80
  -6   4 -10  331.57   35.70
  -4 -10  -6  311.17   34.20
 -10  -6  -4  238.38   44.00
   6  -4  10  289.87   36.30
  -4  -6  10  316.37   35.20
   6  10   6  339.77   34.10
  10  -6   6  267.47   36.10
   6 -10   6  249.48   33.10
   6  -6  10  333.77   33.30
  -6 -10  -6  330.27   36.40
  -6  -6 -10  325.07   36.30
  10  -6  -6  332.17   33.40
  -6   6  10  274.77   33.50
  -6  10  -6  242.08   49.50
   6  -6  10  310.97   35.80
   8  10   0 3275.77  380.96
   0  -8 -10 3843.22  384.26
   0  -8  10 3728.53  383.36
   0  10   8 3996.50  382.86
  10  -8   0 3880.01  381.86
  -8   0  10 3906.81  390.66
   0 -10   8 4225.48  382.46
  10   0   8 3576.64  383.06
   0  -8  10 3863.31  381.96
 -10   8  -2 1735.53  168.78
 -10  -8   2 1558.64  167.98
   2  -8  10 1624.24  160.38
   8 -10  -2 1699.23  158.28
   8  10   2 1466.05  157.78
  -2  -8  10 1439.06  159.28
  -2  10   8 1382.26  158.78
  10   2   8 1754.32  159.68
 -10   8   2 1443.16  162.08
 -10   8  -4  100.49   26.20
   8   4  10  111.79   13.50
   8   4  10   99.19   10.20
  -4   8  10   84.09   13.10
  -4 -10   8   70.19   13.60
 -10   4   8   75.29   11.80
   4 -10  -8   71.19    9.80
  -8  10   4   90.09   18.90
   4  -8  10   69.69   16.00
  -8  -4  10  102.99   23.10
  -4  10  -8   59.59   22.00
   8  10  -4   89.89   15.00
  10  -4   8   62.69   15.00
  10  -4  -8   90.09   11.10
  -8   4  10   47.20   19.70
  -4  -8  10   89.09   14.40
   4   8  10   97.19   14.30
  -4  10   8   78.39   13.80
   8  -4  10   68.09   15.20
 -10  -4   8   84.49   10.60
   4  -8 -10  103.59   13.60
  -8  10  -4   78.19   24.20
 -10   8   4   82.09   17.00
  -4  -8  10   92.59   14.20
  -8   4  10   82.79   12.60
 -10  -4   8   70.49   23.50
  10  -6   8  845.02   79.39
 -10  -6  -8  608.74   83.59
  -8   6 -10  669.13   76.29
  -6  10  -8  794.02   91.09
  10  -8  -6  777.72   76.29
   6 -10  -8  677.03   74.99
  -8  -6  10  701.53   75.79
  -6  -8  10  831.32   77.09
  -8  -6 -10  714.73   81.99
 -10  -8  -6  686.73   84.59
 -10   8   6  764.42   77.59
   6  10  -8  750.32   82.99
   6  -8 -10  748.03   74.69
   8  -6  10  659.23   78.29
   8  10   6  789.82   76.39
 -10  -8  -8 1456.75  163.98
  -8  -8 -10 1561.84  160.58
  -8   8  10 1463.55  156.68
   8  -8  10 1713.53  156.78
   8   8  10 1592.44  157.18
   8  10  -8 1617.84  161.88
   8  10   8 1374.46  156.48
   0 -10  10 4863.11  517.65
  10   0  10 5444.06  517.55
 -10  -2  10  597.94   58.19
 -10   2  10  537.95   58.19
  -2 -10 -10  583.24   55.89
  -2 -10  10  569.84   58.89
   2 -10 -10  555.24   56.49
   2 -10  10  581.54   61.39
   2 -10  10  503.45   57.89
  10 -10  -2  451.05   57.79
  10  -2  10  491.65   59.69
  10   2  10  619.14   57.89
  10  10   2  616.74   57.89
 -10 -10  -4   52.09   17.50
 -10  -4  10   33.20    7.60
 -10   4  10   37.20    8.80
 -10   4  10   10.40   16.30
 -10  10  -4   40.20   21.60
 -10  10   4   32.90   12.40
  -4 -10 -10   47.60    5.20
  -4  10  10   35.20   10.40
   4 -10 -10   45.10    6.00
   4 -10 -10   47.70   10.90
   4 -10  10   36.30   10.60
   4 -10  10   36.30    7.30
  10 -10   4   44.90    8.20
  10  -4  10   20.50   14.90
  10   4  10   31.80    9.90
  10   4  10   31.60    5.80
  10  10  -4   28.70    7.00
  10  10   4   47.10    9.00
 -10 -10  -6  209.48   30.10
 -10  -6 -10  151.58   29.20
 -10  -6  10  180.28   19.70
 -10  10  -6  139.79   38.70
 -10  10   6  126.59   22.10
  -6 -10 -10  189.28   19.20
   6 -10  10  189.28   24.90
   6  10 -10  114.29   29.00
  10 -10  -6  144.29   19.20
  10  -6 -10  157.98   18.50
  10  -6  10  146.49   23.30
  10  10  -6  157.78   20.50
 -10 -10  -8  795.12   98.69
 -10  10  -8  950.80  108.99
  -8  10  10  922.51   93.29
   8 -10 -10  797.42   91.29
   8  10 -10 1059.99  100.59
  10 -10  -8  769.82   91.89
  10  -8 -10 1003.80   91.69
  10  -8  10  872.71   95.39
  10   8 -10 1031.40   98.09
  10   8  10  941.21   93.29
  10  10  -8  772.62   94.49
  10 -10 -10  331.27   32.50
  10 -10  10  244.08   32.40
  10  10 -10  320.77   41.20
 -11  -1   1 2522.95  271.87
 -11   1   1 3002.70  273.97
  -1  -1  11 3013.30  273.47
  -1  -1  11 2543.95  271.37
  -1  11  -1 2761.82  279.07
   1   1  11 2454.25  273.27
   1   1  11 2973.40  270.87
   1  11   1 2741.43  275.47
  11  -1  -1 2393.76  271.97
  11   3   1  513.15   52.19
 -11   1   3  542.75   52.79
 -11   3  -1  554.84   60.29
  -3  -1  11  433.66   53.79
  -3  -1  11  593.34   54.49
  11  -1   3  503.55   53.79
   1  -3  11  465.85   54.39
   1  -3  11  497.65   52.39
   3 -11   1  548.05   51.99
   3  11  -1  597.04   58.19
   3   1  11  424.46   53.99
  -1  -3  11  505.15   54.29
  -3 -11   1  513.25   54.29
 -11   3   1  477.55   56.29
  -3  11  -1  618.94   62.09
  -3   1  11  522.25   53.79
  -1 -11  -3  423.76   52.99
   3  -1  11  499.75   54.39
  11   1   3  485.25   53.09
  -3   3 -11 3058.59  332.77
  11  -3  -3 3062.49  332.97
   3 -11   3 3561.54  332.97
   3  -3  11 3108.69  334.07
   3   3  11 3260.57  333.67
 -11   3   3 3859.01  334.17
  -1  11  -5   11.40   16.70
  -1   5  11    9.70    5.60
 -11  -5   1   11.10   17.60
 -11   5  -1   10.00   14.70
  -1  -5 -11    1.00    7.30
   1  -5  11    7.90    6.20
  11  -5  -1   10.40    5.00
  -5   1 -11   -0.70    7.00
   5   1  11    5.40    6.40
   5   1  11    7.30    2.30
   5  11  -1   11.20    7.70
   1  11   5   20.50    7.20
  -5  11   1   -0.20   12.00
 -11   1   5    9.60    3.50
   1 -11  -5    9.50    3.10
   1 -11  -5    2.20    7.00
  11   5   1   10.40    3.40
  -5  -1  11   11.30    5.90
  11  -1   5    7.60    5.70
  -1  -5  11    8.60    7.20
  -1  -5  11    8.90    4.00
   1  -5 -11    6.50    6.60
   1   5  11    8.10    5.90
  11  -1  -5    4.10    2.90
  -5 -11   1   -1.40    6.10
  11   1   5    9.40    4.10
  -1  11   5    0.50    6.50
  -1 -11  -5   19.50    5.10
 -11   5   1    8.20   10.90
  -5  11  -1   -8.60   15.40
   1  11  -5   -0.70   14.50
  -5   1  11    5.00    5.00
  -5   1  11   14.00    9.10
   5  -1  11    4.00    6.50
   5  -1  11   11.60    3.20
 -11  -5  -1   14.10   17.60
 -11  -1   5   11.50    3.20
 -11  -1   5   12.50   17.70
   1 -11   5   22.20    6.20
  -5  -1 -11    9.80    7.90
  11   1   5    4.50    4.70
   5  11   1   10.70    6.30
   3  11   5 2590.84  254.47
   5   3  11 2524.55  254.97
  11   5   3 2867.01  253.47
  11  -3   5 2281.77  254.77
  -3  11  -5 2402.66  262.17
   3  -5  11 2412.16  255.07
  -3   5  11 2959.80  254.97
  -5   3  11 2394.56  257.87
   5  -3  11 2961.70  256.07
  -3  -5  11 2714.13  254.77
 -11  -5  -3 2144.39  262.67
   3   5  11 2312.87  254.37
   5 -11  -3 2230.48  253.27
  11  -3  -5 2488.35  253.57
  11   5   5 3323.87  342.87
  -5   5  11 3718.93  343.57
  -5   5  11 2964.20  346.77
  -5  11   5 3189.28  345.37
   5  -5  11 3115.29  344.37
   5   5  11 3926.11  344.37
   5  11  -5 3301.27  347.87
  -5   5 -11 3685.23  342.87
  -5 -11  -5 3516.15  344.17
 -11  -7   1 1540.55  163.38
   1  -7  11 1523.75  153.78
  11  -1   7 1511.25  153.28
  -1   7  11 1597.04  152.88
   7   1  11 1365.46  152.98
  -1  -7 -11 1384.86  154.28
   1  11   7 1686.33  153.18
  -7  -1  11 1621.04  152.38
 -11  -1   7 1427.46  150.58
 -11  -1   7 1682.13  165.28
   1   7  11 1449.55  152.68
  11   1   7 1365.56  152.38
   1  11  -7 1295.47  159.18
  -7 -11   1 1294.77  155.68
   7  -1  11 1734.83  151.28
 -11   3   7  332.47   38.70
  11  -3   7  314.87   40.90
   3 -11  -7  363.26   38.00
 -11   7  -3  455.55   53.79
  11  -7  -3  428.96   40.20
   3  -7  11  391.26   41.70
   7  11  -3  324.27   41.20
  -3  -7  11  359.06   42.30
   3   7  11  414.46   41.10
 -11  -3   7  350.66   37.20
   3 -11   7  369.06   39.10
 -11  -7  -3  326.27   50.89
  11  -3  -7  362.46   38.70
  11  -7  -5  626.24   60.49
   5  -7  11  576.34   62.69
   7   5  11  641.14   61.59
   7  11  -5  485.25   63.39
  11   7   5  636.34   60.09
 -11   5   7  635.24   59.99
   5 -11  -7  533.35   59.69
   5 -11   7  495.15   59.59
 -11  -7  -5  483.95   69.99
  -5  -7  11  564.84   60.79
  -7  -5 -11  498.85   63.99
   5  11  -7  568.84   67.99
   5   7  11  647.14   61.29
  -7   7  11  102.29   13.30
  -7  11  -7   88.39   25.70
   7 -11  -7   74.49   10.40
  -7  -7 -11   82.09   14.80
  -7  -7  11   74.09   12.90
   7  11  -7  120.99   23.60
  11  -7  -7   58.49   10.70
  11   7   7   75.59   14.70
   7  -7 -11   80.59   10.10
   7  -7  11   67.39   16.40
  -1  -9 -11 1384.56  153.08
  11  -1   9 1605.74  152.28
   9   1  11 1631.64  152.28
   1  -9  11 1318.17  152.28
  -9  -1  11 1339.17  151.78
 -11  -9   1 1283.97  159.48
  -1 -11  -9 1495.35  153.98
   1  11  -9 1482.85  159.88
   9  -1  11 1514.95  152.58
  -9  11  -1 1670.63  160.78
  -1  -9  11 1525.45  152.48
 -11  -1   9 1303.47  149.79
  -1  -9  11 1727.33  151.28
  11   1   9 1287.47  151.48
  -9   1  11 1489.15  150.68
  11  -9   1 1718.43  151.18
   3  -9  11  124.29   20.80
  11  -3   9  170.58   21.20
  11  -3   9  114.59   16.60
 -11  -9   3   94.09   28.80
 -11   9  -3   79.39   28.50
  -9  -3  11  141.79   17.50
  -3  -9 -11  149.09   21.30
   9   3  11  133.59   17.10
 -11  -3   9  150.58   16.30
   3  -9 -11  158.58   14.90
  11   3   9  175.88   19.40
 -11   9   3  126.79   23.40
  -3  -9  11  142.39   19.50
  -3  11   9  120.89   19.10
   9  -3  11  120.39   19.80
   9  -3  11  143.69   16.50
  -9  11  -3  170.58   36.50
   3  11  -9  185.48   31.20
  -9  -5  11   61.39   18.90
  -9  -5  11   28.50    7.50
  11  -5   9   19.50    9.20
   5  -9  11   25.20    9.00
   9   5  11   13.30    7.40
 -11   9  -5   50.09   23.10
  11   9   5   19.90    6.50
  -9   5 -11   11.10    7.30
  -9  11   5   18.00   10.30
  -5 -11   9   35.30   10.40
  -5  11  -9   25.50   21.30
  -5   9  11   20.50    7.30
   5 -11  -9   27.00    5.30
   5 -11  -9   24.30    7.30
   5  -9  11   20.00    6.20
 -11   5   9   12.90    5.60
   9  11  -5   30.50    8.90
   5  11   9   41.90    9.60
   9 -11   5   13.60    5.70
   5  -9 -11   31.10    4.30
   5   9  11   26.70    8.00
 -11  -5   9   64.09   22.00
  11   5   9   26.00    8.10
  -5  11   9   17.30    6.60
  -9  11  -5   37.30   22.70
  -5  -9  11   19.70    7.90
   9 -11  -5   18.00    5.30
  11  -5  -9   23.10    5.10
  -9  -5 -11   29.40   16.40
 -11  -9  -5    9.40   14.30
  11  -9   5   37.30    7.30
  -9 -11   5    2.90   12.20
  -9   5  11   12.80   14.80
   9  -5  11   27.30   10.20
   9  -5  11   27.20    5.90
 -11   9   5   50.39   13.50
 -11  -5   9   22.60    6.40
   9   7  11  206.18   25.50
   7  -9  11  213.88   28.40
   7  -9  11  215.68   24.10
  -9  -7  11  187.38   24.30
  -9   7 -11  188.78   24.00
   9  11  -7  196.18   29.30
  11   9   7  219.98   24.60
  11  -7   9  173.88   27.40
   7  11   9  180.08   24.90
  -7   9  11  218.08   25.00
 -11   9  -7  186.48   42.70
  -9   7  11  236.88   25.00
  -7 -11  -9  206.78   25.50
   7  11  -9  217.48   34.10
   9  -7  11  211.78   28.20
 -11  -7   9  275.97   38.20
 -11  -9  -9  363.06   55.89
 -11   9  -9  404.76   44.00
  -9 -11  -9  492.35   50.89
  -9 -11   9  489.15   52.69
  -9  -9 -11  433.36   50.99
  -9   9  11  400.86   45.30
  -9  11   9  400.46   45.40
   9 -11  -9  380.46   44.00
   9  -9  11  386.86   47.50
   9   9 -11  443.46   53.09
  11  -9  -9  413.46   44.40
 -11  -1  11 1045.20  108.39
   1 -11 -11  938.71  106.09
   1  11  11 1051.39  109.79
  11 -11  -1 1234.38  109.09
  11  -1  11 1043.60  110.09
 -11  -3  11 1412.16  125.39
 -11  -3  11 1194.88  136.59
   3  11  11 1304.97  126.69
  11  -3  11 1172.88  127.29
  11   3  11 1066.79  126.39
  11  11  -3 1258.47  124.19
  11  11   3 1187.68  125.19
 -11   5  11  462.05   71.19
   5  11  11  472.25   58.59
  11  -5  11  620.54   61.39
  11   5  11  582.74   59.29
  11  11   5  572.84   58.19
 -11 -11  -7    6.40   11.70
 -11 -11   7   -1.90   12.60
 -11  -7 -11   -0.20   16.90
 -11  -7  11   -4.10   12.60
 -11   7  11    1.60    4.90
 -11  11  -7   -3.30   21.20
 -11  11   7    2.80    6.80
  -7 -11 -11   -0.30    3.20
  -7 -11  11   -1.70    7.50
  -7  11  11   -1.20    5.80
   7 -11 -11    0.70    3.00
   7 -11  11    0.60    3.70
   7  11 -11    4.40   15.10
   7  11  11    0.10    6.10
  11 -11  -7   -2.10    3.00
  11  -7 -11    1.00    2.50
  11  -7  11    1.00    8.40
  11  -7  11    2.30    3.80
  11   7  11   -0.50    5.80
  11  11   7   -0.20    5.10
 -11 -11  -9   24.30   15.00
 -11 -11   9    8.80   14.00
 -11  -9 -11    5.30   15.40
 -11  -9  11   30.10   16.30
 -11   9 -11   12.40    5.20
 -11   9  11    5.80    5.70
 -11  11  -9    8.40   18.50
 -11  11   9   17.40    7.20
  -9 -11  11    1.40   11.00
  -9  11  11   29.20    8.30
   9 -11 -11   18.90    5.60
   9  11 -11   19.40   15.60
   9  11  11   11.10    6.70
  11 -11  -9   21.00    5.90
  11  -9 -11   12.90    4.40
  11  -9  11   18.10   10.70
  11   9  11   17.90    7.70
  11  11   9   10.30    6.40
 -11 -11  11   -1.60   12.20
 -11  11 -11   12.30   24.40
 -11  11  11    3.00    6.30
  11 -11 -11    3.20    3.40
  11 -11  11    7.60    5.20
  11  11 -11   12.50   15.80
  11  11  11   -4.00    5.10
 -12   0   0 6729.53  634.84
   0   0  12 5921.61  633.34
 -12   0   2    3.70    3.90
  -2  12   0    5.90   13.50
   0  -2 -12    4.60    5.90
   0  -2  12   -0.40    4.90
   0  -2  12    1.00    3.00
   0   2  12    0.60    4.20
   0   2  12    1.80    1.30
   2 -12   0    0.10    2.90
   2 -12   0   -1.40    5.00
   2  12   0    0.50    9.60
  12   0   2    0.00    3.10
   0 -12  -2    1.60    3.10
   0  12  -2    0.30   12.90
   0  12   2    1.50    9.40
   2   0  12   -1.20    4.30
   2   0  12    3.50    1.90
  12  -2   0    0.30    3.80
  12   2   0    3.20    2.90
 -12  -2   0    4.10    6.30
  -2   0 -12    2.40    5.60
  -2   0  12    2.60    5.80
  -2   0  12    2.50    4.00
   2  12  -2  542.75   62.79
  12   2   2  558.84   56.09
  -2  12   2  520.75   61.59
 -12   2  -2  594.54   64.09
  -2  -2  12  485.75   57.19
  -2   2  12  490.05   56.69
  -2   2  12  607.34   55.39
   2   2  12  601.54   58.29
   2  -2  12  464.35   57.29
   2  -2  12  529.75   55.19
   4  12   0 1176.38  126.49
  12   0   4 1119.79  124.39
   4 -12   0 1264.27  122.59
   0   4  12 1319.07  125.09
   0  12   4 1000.00  125.59
   4   0  12 1090.89  125.19
   4   0  12 1311.37  122.79
   0  12  -4 1302.67  133.09
  -4 -12   0 1294.57  125.49
   0  -4  12 1289.17  123.79
  12  -2   4 3414.66  305.27
   2 -12  -4 3475.85  305.47
   2 -12  -4 2791.92  303.17
  -4   2 -12 2598.94  304.17
   4   2  12 2847.52  302.07
  12  -4  -2 2662.13  304.07
  -4  -2  12 2795.52  305.47
 -12  -4   2 2956.60  315.57
  -2   4  12 3501.85  304.77
  12   2   4 3077.29  303.47
  -4 -12   2 2926.31  305.07
   4 -12  -2 3007.10  302.97
 -12  -2   4 3321.97  317.57
 -12   4  -4 9999.00  859.81
  -4  12   4 8889.41  853.81
  -4  -4 -12 7515.75  852.31
  -4  -4  12 7902.51  850.91
   4  -4  12 8297.97  851.81
 -12   0   6  107.09   11.00
   0  12  -6   46.20   21.90
   0   6  12   86.99   14.60
   0  -6 -12  116.79   15.50
   0  -6  12  114.19   15.30
 -12  -6   0   96.49   30.50
  -6   0 -12   84.69   16.60
  -6   0  12   76.49   13.70
  -6   0  12   72.99   18.00
   0  12   6   66.29   13.90
   6   0  12   81.39   15.40
  12   6   2  448.76   49.99
 -12   2   6  532.15   50.39
   6   2  12  502.65   52.89
   2  -6  12  492.45   52.79
  -6   2 -12  417.76   52.69
   6 -12   2  463.75   51.19
  -2   6  12  439.16   51.79
  -2 -12   6  528.55   51.99
  -2  12  -6  459.25   61.29
  12   2   6  483.65   50.59
   6  -2  12  469.45   53.09
   2   6  12  551.44   52.19
  -4  -6 -12 4585.54  404.16
  -6  -4  12 4122.09  401.16
   4  -6  12 4416.66  402.76
  12   6   4 3382.76  399.76
  -4   6  12 3668.63  400.86
  -4  -6  12 3502.95  400.86
  -6   4  12 3732.73  405.56
  12   4   6 4455.55  400.86
   6  -4  12 4333.07  401.26
   6  -4  12 4272.07  402.46
   4  -6 -12 3489.55  400.56
   6  -6  12 1704.73  173.58
   6  -6  12 1881.51  171.58
   6 -12  -6 1835.42  171.58
  -6   6  12 1451.15  171.38
   6  12  -6 1679.03  176.98
  -6  -6  12 1507.65  171.48
  12   6   6 1698.13  171.58
  12  -6   6 1777.32  171.58
  -8   0  12  827.02   85.89
   8  12   0  807.32   85.09
   0  -8  12  874.11   87.49
   0   8  12  795.62   86.59
 -12   8   0  681.23   91.49
  12   0   8  842.52   86.59
   8   0  12  932.31   87.69
   8   0  12  844.72   84.59
   8 -12   2   23.70    6.60
  -8  -2  12   36.70   15.10
  -8   2 -12    6.10    8.20
   2  12   8   15.70    7.30
   2  -8  12   19.50    9.00
  -2   8  12   37.80    9.50
   2 -12  -8   26.50    4.70
 -12  -8   2   13.10   18.00
  12   8   2   22.40    5.50
  -2  12  -8   11.50   14.80
   8   2  12   18.70    8.00
 -12   8  -2   36.00   18.20
  -8  12   2   17.40   13.70
   8   2  12   31.00    5.30
 -12   2   8   23.30    6.60
  -8  -2  12   23.00    6.80
   2 -12  -8   15.70    8.40
  12  -2   8   19.80    8.40
  12  -2   8   20.60    6.10
 -12   8   2   12.30   10.90
  12   2   8   27.50    8.20
  -8 -12   2   36.90   13.70
  -8   2  12   30.20    8.00
  -8  12  -2   43.40   18.50
  -2  12   8   28.00    8.30
  -2  -8  12   23.90    8.50
  -2  -8  12   20.30    6.10
  -2 -12  -8   20.40    4.20
  12   2   8   14.60    4.80
   8  -2  12   22.70    8.60
   2   8  12   41.80   10.70
 -12  -8  -2   20.60   18.30
  -8   2  12   16.30   14.20
   2  12  -8   15.70   17.30
   8  12   2   14.60    5.90
 -12  -2   8   20.00    4.80
 -12  -2   8    6.10   17.40
  12  -4   8 1159.38  125.79
   4  -8  12 1229.28  126.49
  -8 -12  -4 1146.09  127.59
   4  12   8 1196.48  124.49
  -4  -8 -12 1143.19  126.89
  -8   4  12 1294.47  133.09
  -8  12  -4 1237.48  134.89
   4   8  12 1021.90  124.19
  -4  -8  12 1168.38  124.89
   8  12   4 1379.26  124.09
 -12   8   4 1141.29  126.39
   8  -4  12 1393.36  126.49
  -4  -8  12 1264.27  125.19
  -8  12   6   -1.20    7.50
   6  12   8    1.70    5.30
   8  12  -6    0.10    9.80
  -6   8  12   -1.80    5.00
  -6   8  12   -4.10   11.80
  12   8   6    1.20    4.90
   6  -8  12    6.30    8.50
   6  -8  12   -0.40    3.30
  12  -6   8   -0.20    7.50
   6 -12  -8    2.20    2.60
  -8  -6  12   -0.50   10.90
  -6  12  -8    1.60   15.60
 -12   6   8    3.70    4.30
  12  -6   8    0.10    3.20
  -8  -6  12    5.30    5.10
   8 -12   6    2.90    4.30
  -6  -8 -12    3.60    2.00
  -8   6 -12   -5.90    4.20
 -12   8  -6   16.40   20.80
   8   6  12   -2.20    5.90
  -6 -12   8    0.20    6.80
  -8  12  -6    3.10   20.00
   6  12  -8   -1.00   12.20
  12   6   8   -1.10    4.70
  -6  -8  12    0.10    5.30
  -6  -8  12    0.20    7.00
  -8  -6 -12    7.30   10.90
  -8   6  12   -2.30    4.60
  12  -8   6    0.10    3.30
  -6  12   8    6.50    6.30
   8 -12  -6    2.40    3.10
   6   8  12    0.30    4.70
 -12  -8  -6    4.30   15.70
 -12  -6   8    3.00   16.10
  -8   6  12   10.40   16.20
   8  -6  12    0.20    7.70
   8  -6  12    0.50    3.30
  12  -6  -8   -0.50    2.80
   8  12   6   -1.60    8.50
 -12   8   6   -2.50    5.70
  12   8   8  423.86   48.40
 -12   8  -8  440.56   64.29
 -12  -8  -8  478.85   60.49
  -8   8  12  455.55   48.50
  -8  12  -8  368.66   63.59
   8  -8  12  468.55   51.59
   8  -8  12  429.26   47.50
  -8  -8  12  435.16   48.50
  -8   8 -12  449.76   46.50
   8  12  -8  496.45   55.89
 -10  12   0  901.91   96.79
   0 -10  12  755.22   89.09
  12   0  10  854.11   88.99
  10  12   0  813.42   87.69
 -10   0  12  885.51   99.09
   0  10  12  746.03   87.89
 -12  10   0  826.22   95.39
 -10   0  12  904.11   87.89
   0 -12 -10  968.70   91.29
  12  10   2  104.99   14.80
 -10  -2  12   94.89   27.80
 -12  10  -2  119.99   30.90
  10  12  -2  132.39   14.90
 -10  -2  12  125.89   16.50
  12  -2  10  127.99   18.50
  10   2  12   94.29   17.30
  -2  12 -10   91.99   28.70
   2 -12 -10  151.08   19.40
   2 -10  12  106.69   19.10
 -10 -12  -2  152.28   26.20
 -12   2  10  116.69   31.90
 -12   2  10  115.29   15.90
  12  -2  10  137.29   15.70
  10  -2  12  145.79   15.10
   2  10  12   96.09   16.90
  -2 -12 -10  110.49   20.70
  10  12   2   95.69   15.20
  12   2  10  100.39   17.60
  12   2  10  134.89   14.90
   2 -10 -12  118.89   18.60
  -2 -10  12   98.99   18.00
 -12  -2  10  141.29   15.20
 -10 -12   2  167.18   26.90
  -4 -12  10 1716.73  166.48
   4 -10  12 1536.05  167.68
   4  10  12 1396.76  165.68
 -10   4  12 1394.06  165.18
   4 -10 -12 1537.55  163.18
   4 -10 -12 1735.73  166.18
 -12  10   4 1880.51  169.88
  -4 -10  12 1752.12  167.28
  10  12   4 1931.21  165.78
  10  -4  12 1520.85  166.98
 -12  -4  10 1545.85  163.88
  12  -6  10  370.66   42.30
   6 -12 -10  409.36   37.80
 -12  10  -6  355.96   56.29
  12  10   6  397.56   39.20
  -6  10  12  301.27   39.20
 -10   6 -12  322.57   40.00
   6 -10  12  326.67   42.20
  -6 -12  10  380.76   41.60
   6  12  10  292.07   39.30
  10  12  -6  365.36   40.20
  10  12   6  338.37   39.00
  10  -6  12  280.27   41.30
 -10  -6 -12  297.37   48.10
  -6 -10  12  409.46   42.20
   6 -10 -12  356.86   36.90
  -6 -12 -10  413.06   37.70
 -12 -10   8   17.90   16.10
 -12  -8 -10   12.50   14.60
   8 -10  12   29.90   11.70
 -12   8  10   35.60   10.30
 -10 -12  -8   35.00   12.50
  -8 -10 -12   27.90    8.90
  10  -8 -12   29.20    5.40
   8  12  10   37.30   11.30
   8 -10  12   36.30    7.90
  12  -8  10   14.70   10.70
   8 -12 -10   39.10    6.60
  10  12  -8   17.80   11.30
  -8  12 -10    6.40   23.30
  10   8  12   30.60    9.30
 -12  10  -8   20.10   23.70
 -12  -8  10   34.80   18.70
 -10   8  12   33.90   10.10
  -8 -12 -10   49.50   10.80
  12   8  10   18.50    8.20
  -8  12  10   17.10    8.10
 -10  12  -8   42.00   21.80
   8  12 -10   21.50   16.20
  10  12   8   37.00   10.30
   8 -10 -12   35.70    5.80
  10  -8  12   17.10   10.70
 -12 -10  -8   14.10   13.90
 -10 -12   8   47.40   17.10
 -12 -10 -10   62.29   22.70
 -12 -10  10   79.99   23.30
 -12  10 -10   92.99   32.50
 -10 -12 -10   89.09   19.20
 -10 -10 -12   46.90   15.40
 -10  10  12   70.99   12.80
 -10  12 -10   63.99   29.00
  10 -12 -10   59.49   10.20
  10 -12  10   78.39   11.70
  10 -10 -12   71.19    9.50
  10 -10  12  108.39   19.90
  10 -10  12   67.69   11.10
  10  10 -12   62.19   20.50
  10  10  12   65.09   13.50
  10  12 -10   30.80   17.10
  10  12  10   59.79   12.40
  12 -10 -10   70.59   10.30
  12  10  10   90.29   13.70
 -12 -12   0   -4.60   13.10
 -12   0  12   14.70   17.50
 -12  12   0   21.40   16.00
   0 -12 -12   14.00    9.70
   0 -12  12   10.80    5.60
   0  12  12   14.80    8.10
  12   0  12   20.30    8.60
  12  12   0   14.40    5.10
 -12  -2  12  590.64   53.99
 -12  -2  12  472.75   66.19
 -12   2  12  492.35   67.49
  -2  12  12  448.16   54.69
   2 -12 -12  528.25   55.99
  12  -2  12  483.35   53.39
 -12  -4  12 3802.72  341.17
 -12  12  -4 3175.08  351.66
  -4  12  12 3242.68  342.27
   4  12 -12 3095.89  349.47
   4  12  12 3295.47  342.67
  12   4  12 3623.14  343.27
  12   4  12 3488.05  340.87
 -12  -6  12 1426.06  143.39
 -12   6  12 1443.86  144.19
  -6  12  12 1309.07  144.39
  12   6  12 1461.15  145.39
 -12  -8 -12  186.78   42.60
 -12   8 -12  231.18   27.40
 -12  12   8  217.48   28.30
  -8  12 -12  208.48   47.80
   8 -12 -12  239.78   26.00
   8  12 -12  201.08   39.20
   8  12  12  189.18   27.10
  12 -12  -8  241.68   26.50
  12  -8 -12  229.98   25.40
  12   8  12  232.08   28.10
 -12 -10 -12  797.62  100.09
  10 -12 -12  915.41   91.39
  10  12 -12  872.21  101.99
  12 -12 -10  756.82   91.79
  12 -10 -12  996.80   91.99
  12  10  12  982.10   94.49
 -12  12  12 1458.95  149.99
  -1  -1  13  921.71   93.09
  -1   1 -13  955.10   92.29
  -1   1  13  845.02   92.79
  -1  13  -1  793.12   97.19
  -1  13   1  878.91   97.29
   1  -1  13  972.20   93.49
   1  -1  13  954.70   90.49
   1   1  13  909.51   93.19
  13   1  -1  796.92   91.79
 -13   3  -1 1299.37  140.79
   3   1  13 1318.97  136.09
   1  -3  13 1295.87  135.99
  -1 -13   3 1454.45  135.19
  -1  13  -3 1488.95  144.09
   3  13  -1 1514.25  139.69
  -1  -3  13 1361.26  133.99
  13   1   3 1348.77  134.89
 -13   3   1 1090.49  136.49
   3  -1  13 1174.08  133.39
  -3   1  13 1316.77  135.59
  -1 -13  -3 1404.96  134.59
   1   3  13 1137.29  135.19
   3 -13  -1 1377.56  134.39
  -1  13   3 1370.46  138.69
 -13  -1   3 1418.46  132.49
   3  -1  13 1185.18  135.89
   3  13   3 3954.30  350.16
  13   3   3 3374.26  347.67
  -3 -13  -3 3508.35  348.37
  -3  -3  13 3292.37  348.87
  -3   3  13 3610.54  348.87
  -3  13   3 2942.11  351.46
   3  -3  13 3591.84  349.87
   3  -3  13 3468.45  347.47
   5   1  13 1122.59  110.69
   5   1  13 1200.98  107.59
  13  -1   5 1130.49  110.39
  -1  -5 -13  994.60  110.99
   1  -5  13 1052.19  110.79
 -13   1   5  998.00  107.79
  13   5   1 1114.09  107.69
  -5  13   1 1189.68  116.09
 -13   5  -1  940.31  114.89
  13   1   5 1153.48  109.79
 -13  -5  -1 1007.70  122.09
 -13   5   1 1021.40  113.09
  -5  -1 -13  945.91  111.09
  -1  -5  13  965.20  110.29
   5  -1  13 1096.19  107.99
   5  -1  13 1103.19  110.69
   3  -5  13 4755.12  449.26
  -3   5  13 4756.82  448.26
   5   3  13 4570.04  448.76
  13   5   3 3972.30  446.56
  -3 -13   5 4782.92  448.26
  -3  13  -5 4518.85  456.95
  -5  -3  13 4462.45  448.06
   3  13   5 4436.46  447.96
   3 -13  -5 5009.10  448.46
  -5  -3 -13 4318.47  449.86
   3   5  13 3634.04  447.66
   5 -13  -3 4529.35  446.46
  -3  -5  13 4830.52  448.76
  13   3   5 4688.43  447.96
  -3 -13  -5 4330.67  446.86
   5  -3  13 3844.72  448.56
  -5  13   5 6490.05  592.94
  -5  13  -5 6071.79  599.54
 -13  -5   5 5007.80  599.44
 -13   5  -5 6452.05  599.74
 -13   5   5 5920.31  589.74
  -5  -5  13 5758.12  589.94
  -5   5  13 5517.15  589.64
   5  -5  13 5358.96  590.54
   5   5  13 5835.72  590.24
   5  13   5 6465.95  590.04
  -1 -13   7  108.79   13.00
  -1   7  13   99.29   14.70
  -1  13  -7   46.40   23.00
   7   1  13   97.99   15.70
   7   1  13   93.99   10.60
  13  -7  -1  109.79   13.60
  -1  -7 -13   77.49   16.70
  13   7   1   78.09   10.60
 -13   1   7   82.89   10.90
 -13   1   7   42.40   23.90
  -7   1 -13   59.89   15.90
  13  -1   7  106.29   15.10
 -13   7  -1   93.89   27.10
   1  -7  13   74.39   15.20
   1 -13  -7   88.99   16.50
  13  -1   7   86.79   12.30
   7  13  -1  106.29   14.80
  13   1   7   80.09   13.80
   7  -1  13   71.79   10.20
 -13  -7  -1  106.59   30.70
  -1  -7  13   69.49   14.70
  13   1   7   75.39   11.40
  -1 -13  -7   73.89   10.30
  -7  13  -1  132.99   30.30
 -13   7   1  106.99   21.90
   7  -1  13   92.09   15.80
  -7   1  13   85.29   23.10
  -7  -1 -13   79.69   17.30
  -1  -7  13   73.29   11.30
   1   7  13  115.59   15.10
  -7   1  13   81.59   12.90
   7   3  13  715.23   78.09
 -13   3   7  772.22   76.19
  13  -7  -3  775.72   77.29
   3  -7  13  686.03   78.59
  -7   3 -13  829.62   78.79
   3  13   7  735.53   77.69
   7 -13   3  782.62   77.19
  -7  -3  13  756.42   77.49
  13  -3   7  726.03   78.39
  -3 -13   7  737.93   77.19
  -7   3  13  721.23   76.89
  13   3   7  715.33   77.19
  -7   3  13  738.93   84.29
   7  13   3  815.82   76.99
  -3  13   7  626.34   77.59
   7  -3  13  670.03   78.29
   5  13   7 1399.16  130.79
  13  -7  -5 1347.77  130.49
   5  -7  13 1281.17  132.59
   7 -13   5 1027.40  129.69
   7  13  -5 1219.88  133.49
  -7   5 -13 1333.77  130.49
 -13   5   7 1209.18  129.49
  13  -5   7 1346.77  132.79
 -13  -5   7 1222.08  142.49
   7  -5  13 1388.86  132.39
  13   5   7 1217.98  131.59
 -13   7   5 1295.57  131.59
   7  -7  13  291.97   39.10
  -7  -7 -13  391.66   37.40
  -7  -7  13  313.27   37.90
  -7  -7  13  325.67   41.60
  -7   7 -13  366.56   36.30
  -7   7  13  290.07   43.70
  13   7   7  387.66   38.10
 -13   7  -7  255.87   51.39
   7   7  13  329.37   38.40
   1 -13  -9  164.38   20.20
  -9  -1  13  234.08   23.70
  -1 -13   9  213.98   22.90
  13  -1   9  200.78   24.70
  13  -1   9  156.18   21.80
   9   1  13  219.18   24.80
 -13   1   9  208.08   21.80
 -13   1   9  151.38   37.90
   1  -9  13  156.98   25.00
  -9  13   1  153.78   31.90
  13  -9   1  187.18   22.70
   9  -1  13  208.38   25.50
   1  13  -9  209.58   37.60
 -13  -1   9  207.78   21.40
 -13  -1   9  173.68   38.60
  13   1   9  176.08   23.80
  -1  13   9  198.88   24.60
  -9   1  13  225.28   34.10
  -1 -13  -9  183.08   20.40
   1  -9 -13  153.18   24.40
  -9   3 -13  192.98   29.20
  13  -3   9  219.58   29.30
   3  -9  13  255.27   30.80
   3 -13  -9  250.37   25.20
  -9  -3  13  218.98   27.20
  -9  -3  13  179.48   34.60
   9   3  13  224.08   29.10
  -3  13  -9  153.68   41.30
   9   3  13  263.77   25.40
  -3   9  13  256.17   28.20
   9  13  -3  244.88   28.00
  13  -9   3  268.87   27.20
  -9  13  -3  249.08   43.50
  13   3   9  224.08   25.70
   9  -3  13  208.58   28.90
  -3 -13  -9  203.78   24.60
 -13   9   3  287.17   34.30
  -3  -9  13  209.38   28.50
   9  13   3  238.28   26.60
  13   3   9  234.28   28.10
  -3  13   9  276.97   29.10
   9   5  13  151.08   24.60
  -9  -5  13  218.58   23.80
  13  -5   9  165.68   26.00
   5 -13  -9  203.08   23.70
 -13   5   9  209.08   23.10
  -9 -13  -5  231.78   28.70
  -5  13  -9  177.18   41.80
   5  -9  13  173.38   26.70
  -5  -9 -13  215.38   28.50
  -5   9  13  160.98   23.80
   9  13  -5  230.78   26.70
   5  13  -9  173.48   34.00
 -13  -5   9  223.08   39.40
  -9   5  13  212.08   24.40
  -9  13  -5  197.28   42.80
   9  -5  13  228.18   27.00
  -5  -9  13  151.28   24.00
  -7   9  13  315.77   35.30
  -9 -13  -7  352.76   38.60
  -9  -7  13  345.07   35.40
   7  -9  13  290.77   37.90
  13  -7   9  349.37   34.40
 -13   7   9  340.17   35.20
  13  -7  -9  285.67   33.50
  -9   7  13  252.77   43.60
   9  -7  13  296.57   33.60
  -7  -9  13  274.77   35.00
   9  13   7  264.37   34.30
   7  13  -9  264.27   42.70
   9  -7  13  330.17   38.30
  -7 -13  -9  338.17   34.10
  13   7   9  258.67   35.10
  -9  13   9  291.47   31.70
   9  -9  13  266.57   34.80
   9  13  -9  345.17   40.80
  13  -9  -9  271.07   29.90
  -9   9  13  223.98   30.80
 -13   9  -9  201.08   44.10
 -11  -1  13   81.59   24.40
  -1  13 -11   50.49   24.40
 -11  13   1   69.19   20.00
 -11  -1  13   50.29   12.20
  13  -1  11   96.39   15.50
 -13   1  11   51.39   11.40
  13 -11  -1   93.39   12.40
  11   1  13   99.59   15.80
   1  13  11   82.99   14.40
   1 -13 -11   70.09   16.00
  -1  11  13   72.29   13.80
   1 -11  13   66.19   16.00
 -13  11  -1   57.99   20.10
  11  13   1   94.19   12.00
  11  -1  13   97.69   15.90
  11  -1  13   71.89   10.50
  -1 -11  13   52.99   14.50
  -1 -13 -11   66.69    8.40
   1  13 -11   86.89   25.80
  13   1  11   56.69   13.80
 -11   1  13   97.69   13.20
 -11  13  -1   74.19   23.60
  -1  13  11   77.79   14.00
 -13  11   1   91.99   23.30
  -1 -13 -11   99.59   18.40
 -13 -11  -1   67.39   23.50
  11 -13   3 1941.91  223.38
  -3 -11 -13 1910.81  225.98
  13  11   3 2453.95  223.18
  -3  11  13 2023.70  224.28
  11  13  -3 2288.57  222.38
   3 -11  13 2354.56  226.68
  13  -3  11 2087.59  223.38
 -13   3  11 1973.00  225.88
  11  -3  13 2230.58  225.58
  13   3  11 2474.05  225.38
  13   3  11 1963.00  222.48
  -3  13  11 2050.19  224.28
  -3 -11  13 2646.54  226.58
 -11   3  13 2583.04  224.28
   5 -11  13 2426.46  280.07
  11   5  13 2757.02  279.17
  -5  13 -11 2726.83  290.87
  -5  11  13 2982.60  278.97
  13  -5  11 2725.33  280.37
  11 -13   5 3043.10  278.37
 -13   5  11 2499.35  277.37
 -11  -5  13 2704.73  277.47
 -11   5 -13 3185.68  280.47
 -11   5  13 3167.78  291.87
   5  13 -11 2489.65  285.47
  11  13   5 2756.62  277.87
  11  -5  13 2691.63  280.27
  -5  13  11 2613.14  278.67
   5 -11 -13 2592.24  278.17
 -11  -7  13  504.15   52.29
 -13  -7 -11  471.15   65.79
  11   7  13  441.56   53.19
 -11  13   7  395.06   53.49
  13  -7  11  442.96   54.69
  -7  11  13  503.65   52.89
   7 -11  13  559.74   56.79
  13  11   7  476.65   52.19
   7  11  13  417.56   52.29
   7 -11 -13  525.05   50.09
  13   7  11  556.74   53.89
  -7  13  11  448.76   52.99
 -11  -7 -13  470.25   61.99
  13 -11   7  559.14   52.29
  11  -7  13  450.85   51.09
  -9  11  13  311.87   40.30
  13  11   9  420.76   41.30
 -13  -9 -11  413.46   54.89
 -13  11  -9  472.55   62.39
  13 -11  -9  326.37   39.40
 -11 -13  -9  409.76   46.00
  11   9  13  355.86   41.60
   9  13  11  430.56   41.70
 -13  -9  11  338.47   50.69
 -11  -9 -13  369.26   49.40
  11  13   9  354.86   40.50
  -9  13  11  415.16   41.80
   9 -13  11  319.27   39.40
   9  13 -11  357.76   49.90
  11  -9  13  327.77   43.80
  11   9 -13  303.07   48.90
  13  -9 -11  308.97   38.90
 -13  11 -11 1383.96  148.59
 -11  13 -11 1478.15  159.68
  11 -13 -11 1068.39  128.19
  11  11  13 1085.79  129.59
  11  13  11 1394.06  130.49
  13 -11 -11 1305.37  128.49
 -13 -13  -1  227.98   41.20
 -13 -13   1  234.78   41.20
 -13  -1  13  300.07   32.20
 -13  13  -1  312.67   44.90
  -1  13  13  272.97   33.50
   1  13 -13  296.17   49.20
  13 -13  -1  260.17   31.40
  13 -13   1  333.67   32.20
  13  -1  13  231.28   33.60
  13  -1  13  269.27   31.00
  13   1  13  264.77   31.00
  13  13   1  311.07   31.30
 -13   3  13 3400.86  324.37
 -13  13   3 3052.99  328.67
  -3 -13  13 3296.97  324.27
  -3  13 -13 3507.15  337.57
  13  -3  13 3237.18  326.17
  13   3  13 2780.92  324.97
  13  13   3 3278.07  323.57
 -13   5  13 4463.75  401.56
  -5 -13 -13 3849.21  403.76
  -5  13 -13 3623.74  413.06
  -5  13  13 3761.02  401.36
   5 -13 -13 4551.84  401.96
  13  -5  13 4010.20  403.56
  13  13   5 3617.44  400.26
 -13 -13  -7  500.25   61.09
 -13  -7 -13  490.45   64.29
 -13  13   7  437.16   53.59
  -7  13  13  546.95   53.09
   7 -13 -13  549.85   49.90
  13 -13  -7  420.56   51.39
  13   7  13  397.06   52.79
 -13 -13  -9  392.76   50.59
 -13  -9 -13  362.26   51.79
   9  13 -13  416.16   56.09
  13  -9  13  395.56   46.60
  13  -9  13  339.57   40.80
  13   9  13  377.16   43.60
 -13 -13 -11 2334.17  256.27
 -13  11  13 2842.82  250.27
 -13  13  11 2366.56  249.78
  13 -13 -11 2139.79  248.18
  13 -11 -13 2382.06  248.08
  13  11  13 2699.03  251.17
 -13 -13  13 1497.45  173.48
  13 -13 -13 1764.72  166.98
 -14   0   0 3690.43  368.96
   0   0  14 4223.98  369.06
   0   0  14 3475.85  365.76
   0  14   0 3241.58  371.36
 -14   0  -2   21.80   12.50
 -14   0   2   10.30    4.60
  -2 -14   0   12.90    5.00
  -2  14   0    4.30   12.70
   0  -2 -14   24.30    7.70
   0  -2  14    3.60    6.50
   0   2  14    9.90    7.30
   0   2  14    9.30    2.40
   2 -14   0    2.80    3.60
   2 -14   0   21.90    6.90
   2  14   0    4.60   10.90
  14   0  -2    7.60    3.80
  14   0   2    5.40    4.10
   0  14   2    8.70   10.70
   2   0  14    7.70    5.70
   2   0  14   12.70    3.40
  14  -2   0    5.50    4.50
  14   2   0    3.40    3.30
   0  14  -2    1.70   11.60
   0 -14   2   12.40    5.40
 -14  -2   0    3.90    6.20
 -14   2   0    7.30    9.50
  -2   0 -14    3.70    6.20
  -2   0  14    5.20    6.90
  -2   0  14   10.80    3.30
  14   2   2   34.80    9.30
 -14   2  -2   47.70   16.30
   2  14   2   65.09   16.30
  -2  14   2   42.30   13.90
   2 -14  -2   21.20    9.60
 -14  -2   2   11.00   21.00
  -2  -2  14   53.49   12.20
  -2   2  14   39.30    9.40
   2  -2 -14   34.60   10.30
   2  -2  14   38.30    9.70
   2   2  14   48.10   11.90
   2   2  14   38.30    4.80
   2  14  -2   32.80   15.10
 -14   4   0  696.23   85.29
  -4  14   0  805.32   89.09
   4 -14   0  759.22   79.29
  14   0   4  746.83   81.69
   4   0  14  822.92   83.09
   4   0  14  782.02   79.39
 -14   0   4  858.41   79.19
  -4   2 -14 1269.97  149.59
  14   4   2 1662.73  148.79
   2  -4  14 1541.05  151.38
  -2  14  -4 1504.65  159.18
 -14   4  -2 1477.45  156.68
 -14   2   4 1437.86  148.49
   4   2  14 1436.26  150.88
  -4  -2  14 1289.87  150.08
  -4   2  14 1391.06  149.99
  -4  14  -2 1357.26  157.58
  -2  -4  14 1536.15  150.98
  -2  -4  14 1564.24  149.19
 -14   4   2 1620.04  151.78
  14  -2  -4 1506.65  149.29
  14   2   4 1437.66  149.59
  14   2   4 1336.27  148.79
   4  -2  14 1628.34  151.58
  -4 -14   4 3745.73  372.26
  -4 -14  -4 3917.31  371.46
 -14   4  -4 3134.49  378.46
   4  14   4 3856.11  372.16
  14   4   4 3446.26  370.86
   4 -14  -4 3473.85  370.96
   4  -4  14 3332.27  372.76
  -4   4  14 4228.38  371.76
  -4   4  14 4123.99  372.56
 -14   6   0   99.49   25.10
   6  14   0  164.78   20.30
  -6   0  14  131.09   17.90
   0 -14  -6  134.79   15.20
   0 -14  -6  140.39   21.10
   0 -14   6  133.59   16.90
   6 -14   0  131.09   16.60
  14   0   6  164.88   19.60
   0  -6  14  125.49   19.10
  -6 -14   0  114.09   18.50
 -14  -6   0   82.89   30.00
   6   0  14  138.29   14.70
   0  14   6  106.19   18.40
   6   0  14  115.49   17.90
  14  -6   0  125.19   17.10
   6   2  14  171.18   17.70
  14  -2   6  175.38   21.90
  -6  -2  14  128.69   20.40
 -14   2   6  150.78   18.50
  -2   6  14  175.58   21.30
  14  -2   6  152.58   19.80
   2  -6  14  116.69   21.60
   2  14   6  179.58   21.50
  -6   2 -14  184.78   22.40
  14   6   2  154.48   18.30
 -14   6  -2  210.98   33.30
  -6  14   2  198.38   30.80
  -6 -14   2  157.48   22.00
   6  -2  14  148.19   22.50
   2  14  -6  103.39   30.80
  14  -2  -6  174.18   19.30
  14   2   6  145.99   20.30
  -2  14   6  151.88   23.00
  14  -6   2  165.88   20.30
   6  -2  14  182.48   18.50
  -2  -6  14  150.68   21.40
   2   6  14  146.19   21.20
  -6 -14  -4 1643.64  163.88
   4  -6  14 1439.16  164.48
  -6  -4  14 1428.06  165.48
  -4  14  -6 1624.74  174.28
  14   6   4 1845.32  162.88
   4 -14  -6 1721.53  163.18
   6 -14   4 1487.35  162.98
  -6  14   4 1697.93  167.68
  -6  -4  14 1453.45  163.48
  14  -6  -4 1605.84  163.38
   6   4  14 1880.01  165.08
  14  -6   4 1848.81  163.88
   6  -4  14 1604.24  164.88
 -14   6   4 1561.64  165.08
  -6   4  14 1675.93  163.58
  -6   4  14 1519.45  166.58
   6  14   4 1565.64  163.18
   4  14  -6 1479.15  169.68
  14   4   6 1656.53  163.28
  -4  -6  14 1547.45  163.78
  14  -4  -6 1400.76  162.28
 -14  -6   6  132.49   34.80
  14   6   6  144.19   20.40
  14  -6  -6  180.58   20.50
  -6   6  14  190.48   26.80
 -14   6  -6  206.48   39.40
   6  14  -6  118.49   28.70
  -6  -6  14  146.09   21.20
 -14   6   6  154.38   20.70
   6  -6  14  171.18   24.00
   6   6  14  169.58   21.90
  -6   6  14  194.48   22.00
  -6   6 -14  188.48   20.40
   8   0  14  518.55   51.29
   8   0  14  458.55   47.30
 -14  -8   0  350.16   60.99
   0  14  -8  482.85   61.79
   0 -14  -8  445.66   47.80
  -8   0 -14  442.86   51.79
   8  14  -2  113.19   16.80
  -8   2 -14  132.39   19.80
   2  -8  14   98.99   18.40
  14  -2   8   88.09   18.00
  -8  -2  14  124.29   23.40
  -2  14  -8   64.29   25.80
  -2   8  14   87.09   16.10
 -14   8  -2  148.09   30.40
  -8  -2  14  104.69   16.00
  14   8   2  120.99   13.60
   8   2  14  125.09   17.00
   8   2  14  119.39   12.90
  -2  -8 -14  107.79   19.60
   8  -2  14   89.89   17.80
  14   2   8   99.79   13.40
 -14   8   2  132.89   22.10
  14   2   8  107.89   15.80
   8  14   2   89.49   14.20
 -14  -2   8   84.19   29.70
 -14  -8  -2  104.49   31.60
  14  -8   2   86.89   14.40
  -8  14  -2   62.19   24.90
  -2  -8  14   99.49   17.20
  -2  14   8  136.09   17.60
  -8  -4  14  137.49   24.50
  -8   4 -14  171.58   20.00
  14   8   4  134.59   17.30
  -4  -8 -14  110.39   22.10
   4  -8  14  137.19   21.60
  -4   8  14  136.99   19.10
 -14   8  -4  160.08   35.60
   8   4  14  109.79   19.20
 -14  -4   8  116.69   33.80
  -4 -14  -8  134.39   15.80
   4  14  -8  146.99   32.80
   8  -4  14  164.68   21.40
   8  -4  14  112.49   15.80
  -8  14  -4  121.49   35.00
  14   4   8  121.79   16.10
 -14  -8  -4   90.69   30.90
  -4  14   8  109.09   18.70
   8  14   4  149.69   17.90
  -4  -8  14  147.39   18.10
  14   4   8  172.18   19.60
  -4  -8  14  160.38   20.20
  -8 -14   4   93.69   20.80
   8 -14  -4  139.29   16.60
  -8  -6  14  442.16   44.80
 -14  -8   6  315.37   55.19
  -6   8  14  353.16   44.30
  -6  14  -8  480.25   62.29
 -14   8  -6  314.37   57.69
  -8 -14  -6  470.35   47.70
  -8  14   6  386.56   47.50
  14   6   8  487.95   45.30
 -14   8   6  426.46   45.30
 -14  -8  -6  399.06   58.79
   6  14  -8  349.17   51.69
   6 -14   8  418.36   43.90
   8  -6  14  426.66   47.10
   8 -14  -6  350.06   42.80
  -6  -8  14  398.86   45.20
  -8 -14  -8  935.41   91.49
   8  14   8  834.22   90.49
  14  -8  -8  904.71   90.09
  -8   8  14  894.51   90.99
  -8   8 -14  758.12   88.79
  -8 -14   8  910.91   94.09
  10  14   0  148.39   20.40
   0 -10  14  159.28   23.90
 -10   0  14  171.88   22.00
   0  14  10  176.58   22.00
  10   0  14  172.08   19.60
   0  14 -10  236.58   39.50
 -14   0  10  144.59   36.80
  14   0  10  215.68   23.70
  14   0  10  149.49   20.00
  10  14  -2   91.79   13.30
   2 -10  14   79.59   17.80
   2 -14 -10   83.89   11.00
 -10 -14  -2   78.59   19.70
   2  14  10   81.09   15.50
  14  -2  10  101.59   17.40
  -2 -10 -14   84.89   18.60
 -10  14   2   87.29   24.50
  10   2  14   87.69   16.20
  -2  10  14   70.89   15.30
  -2  14 -10  152.88   36.10
 -14  10  -2  139.79   30.70
   2 -10  14   80.59   12.00
  10   2  14  101.89   12.00
 -14 -10  -2   78.69   28.10
  -2  14  10  101.99   16.70
  -2 -10  14   78.59   12.80
 -14  -2  10  110.29   32.90
 -10   2  14  112.99   32.10
  10  14   2  104.09   13.70
  -2 -14 -10   88.29   19.10
  -2 -10  14   97.59   16.90
  10  -2  14  109.19   12.50
  14   2  10  115.49   16.90
   2  14 -10   68.69   24.20
 -10 -14   2   74.89   20.10
 -10  14  -2  137.49   32.10
 -10   2  14  106.89   15.30
  10  -2  14   95.99   17.00
  -4  14 -10  398.36   68.39
 -14  10  -4  502.65   69.39
  10   4  14  485.05   57.49
 -10  -4  14  587.84   56.89
  10  14  -4  533.65   56.29
  14  -4  10  552.64   58.79
  -4  10  14  446.66   56.09
  14  10   4  463.65   55.29
   4 -10  14  540.65   58.69
 -14 -10  -4  553.04   70.29
   4  10  14  603.14   57.59
 -10   4  14  441.06   55.59
  10  -4  14  526.75   58.39
  10  -4  14  578.14   55.29
  -4 -10  14  534.75   57.69
  10  14   4  545.55   55.99
   4  14 -10  616.04   69.39
 -10   6 -14   -1.60    6.60
   6 -10  14    5.20    4.40
  14  -6  10    8.40    9.10
 -10  14   6   11.30   10.20
  -6  10  14    2.70    6.20
 -14  10  -6   12.70   20.60
  10  14  -6    6.20    8.40
   6  14  10    3.00    6.20
  14  10   6    6.60    5.80
  -6 -14  10    2.80    6.30
  -6  14 -10    5.10   22.00
   6 -10  14    4.70    7.50
 -10  -6  14    1.00    5.80
 -14  -6 -10   -5.50   15.20
  10   6  14    4.50    7.40
  14 -10  -6   11.00    5.80
 -14   6  10    4.30    5.10
 -10 -14  -6    3.40    8.50
  -6 -10 -14   14.90   10.90
   6 -14 -10    9.70    5.60
   6  14 -10   17.90   19.00
 -10  -6 -14    9.40   14.90
 -10   6  14   13.20   16.30
 -14  10   6   11.40    8.90
  14  -6 -10   10.70    4.00
  -6 -10  14    2.50    7.10
 -10   6  14    2.90    6.20
 -10 -14   6    5.60   11.40
 -10  14  -6  -10.50   19.50
  10  14   6    5.50    5.60
  14   6  10    9.10    7.30
  -6  14  10    3.10    7.10
   6 -14  10   15.10    5.90
   6  10  14    4.10    7.20
  10 -14  -6    6.20    4.30
  10  -6  14    9.10    4.60
  14 -10   6   10.00    5.30
  10  -6  14    2.50    9.00
 -14  -8 -10  124.19   32.40
  -8  10  14  121.39   17.50
  -8  10  14   61.69   26.10
  14  10   8  128.39   18.10
 -10  14   8  122.29   19.10
  10   8  14   94.89   17.90
 -14   8  10  127.89   16.90
 -10 -14  -8  112.79   19.60
 -14  10  -8   85.69   31.00
   8 -14 -10   92.79   14.60
   8 -10  14  107.59   21.40
  14   8  10  118.39   18.00
 -10   8  14  108.79   28.90
 -14 -10  -8  126.49   30.90
 -14  10   8  120.29   16.70
 -10  14  -8  181.48   41.70
  10  -8  14  117.29   21.50
   8  14 -10  104.59   28.40
 -14  10  10    4.60    6.30
  10  14 -10   34.70   27.70
 -14  10 -10   18.40   24.00
 -14 -10 -10   25.90   22.80
  10  10  14   22.00    9.10
 -10  14  10   11.00    8.00
  14 -10 -10   16.50    5.60
  14 -10  10   18.50    6.70
  14  10  10   23.30    8.40
 -10 -14 -10   36.10   10.30
 -10 -14  10   38.20   14.20
  10 -14  10   10.50    5.90
 -10  10  14   34.80    9.10
 -10  10  14    9.90   20.90
 -10  14 -10   51.89   25.30
  10 -10  14   22.00    6.90
  10  14  10   31.20    9.10
  10 -10  14   15.50   11.20
   0 -12  14   76.19   16.50
   0  12  14   50.69   12.90
  12   0  14   79.59   15.60
   0  14  12   53.69   11.90
 -12   0  14   92.39   14.20
  14   0  12   58.99   10.20
   0  14 -12   25.90   21.60
  12  14   0   81.19   11.60
 -14   0  12   91.19   29.30
 -12   0  14   28.50   20.20
 -12  14   0   49.50   19.40
   0 -12  14   81.19   11.30
   2 -14 -12 1123.79  105.09
  12   2  14  926.91  104.49
  -2 -12 -14  905.71  105.49
  12   2  14 1077.19  101.99
   2 -12  14 1132.89  106.89
 -14  12  -2  845.32  111.69
  -2 -14  12  825.82  102.39
  14  -2  12 1016.90  102.89
  14  -2  12 1142.69  105.69
  12 -14  -2 1078.79  103.09
   2  12  14  919.71  103.89
  14   2  12  861.91  103.89
   2 -14  12 1027.00  102.29
  14   2  12  919.51  101.79
  12  -2  14 1040.10  105.19
 -12   2  14 1092.79  103.79
  14 -12  -4 3284.97  321.77
 -14  12  -4 2879.71  330.97
  -4  14 -12 3325.17  334.77
   4 -14 -12 3369.96  322.07
  12  -4  14 2902.21  320.37
 -12   4  14 3401.76  334.77
  14   4  12 2986.80  322.17
   4  14 -12 3229.58  331.07
 -12   4  14 2978.40  321.07
  12  14   4 3570.44  321.37
  -4  14  12 3036.70  321.77
  12  -4  14 3310.07  323.57
  12   6  14 1186.88  121.69
 -14  12  -6 1128.39  133.99
 -14 -12  -6 1066.09  129.89
 -12  -6 -14 1219.68  132.89
  14   6  12 1087.99  121.09
   6 -14  12 1280.07  119.89
  14  -8  12  268.07   38.40
 -12 -14  -8  265.77   42.70
   8 -14 -12  309.17   33.10
   8  12 -14  274.67   49.00
  12   8  14  294.67   36.50
 -14  -8 -12  265.57   48.20
 -12   8 -14  301.07   34.70
  -8  12  14  288.67   35.40
 -14  12  -8  275.57   54.49
  14   8  12  276.87   36.10
 -14 -12  -8  347.37   47.50
 -12  -8 -14  353.86   51.89
  14 -12   8  343.07   34.90
  12  14   8  328.57   35.30
   8  12  14  344.67   36.60
  12  -8  14  377.06   40.00
 -14   8 -12  295.37   38.70
   8  14 -12  325.47   49.70
 -14  12   8  302.17   35.90
 -12  14  -8  217.68   52.49
  -8  14  12  261.87   35.50
 -12   8  14  280.67   49.10
 -12   8  14  304.57   35.20
  14  12  10  752.02   80.79
  14 -12 -10  733.33   78.99
 -14 -10 -12  784.12   93.69
 -14  10  12  914.81   80.59
 -14 -12 -10  620.54   89.69
  10 -12 -14  747.93   77.99
 -12  10  14  824.62   80.89
 -12  14 -10  963.40  102.49
 -10  14  12  635.94   83.99
  12 -10  14  641.94   82.79
  14 -10 -12  822.52   78.79
 -14  10 -12  626.24   97.09
 -14 -12 -12 1555.24  176.98
 -12  14  12 1528.15  167.78
  12 -14 -12 1546.15  166.08
  12  12  14 1504.45  168.08
  12  14  12 1604.34  167.88
  14 -12 -12 1608.64  166.18
  14 -12  12 1847.52  167.38
  14  12  12 1879.11  169.48
 -14   0  14   25.80   13.30
 -14   0  14   -7.10   17.30
 -14  14   0   11.40   15.00
   0 -14 -14   17.40    9.60
   0 -14  14   12.90    5.60
   0  14 -14   30.20   22.50
   0  14  14   20.50    8.50
  14 -14   0   20.00    6.70
  14   0  14   20.40    9.30
  14   0  14   20.50    6.10
 -14   2  14  258.97   30.80
 -14   2  14  259.67   46.30
 -14  14   2  313.77   40.20
  -2 -14 -14  298.37   34.60
  -2  14  14  270.37   32.00
   2  14 -14  172.28   43.40
   2  14  14  227.18   31.20
  14  -2  14  219.18   32.10
  14  14   2  275.07   29.60
   4 -14 -14  967.50  103.29
  14   4  14 1010.50  104.39
 -14  -6 -14  217.88   48.80
 -14   6 -14  179.68   28.30
 -14   6  14  140.19   39.00
  -6  14 -14  227.98   48.70
   6 -14  14  221.48   24.30
   6  14 -14  130.79   38.70
  14 -14  -6  164.48   23.80
  14  -6  14  238.78   29.50
  14   6  14  218.78   26.80
 -14 -14  -8    8.40   13.80
 -14  -8 -14    3.70   16.20
 -14  -8  14   14.00   17.50
 -14   8  14    3.90    6.30
 -14   8  14    2.50   19.70
 -14  14  -8  -11.40   21.90
 -14  14   8    6.70    8.30
  -8 -14  14   10.70    8.20
  -8  14 -14   15.70   22.00
  -8  14  14    7.20    7.20
   8 -14  14    0.40    4.50
   8  14 -14   -7.30   17.10
  14 -14  -8   14.40    6.20
  14  -8  14    6.30   10.40
  14  -8  14    8.10    5.00
  14   8  14    3.50    8.40
  14  14   8    6.00    6.60
 -14  10  14  138.09   41.50
 -14  14 -10  238.98   50.49
 -10  14 -14  177.08   50.49
  10 -14  14  224.38   24.30
  10  14 -14  177.58   45.10
  10  14  14  212.18   26.50
  14  14  10  169.38   25.80
 -14  14 -12 2070.19  220.88
 -12 -14  14 2113.79  208.88
  12  14  14 1791.72  204.38
  14 -14 -12 2179.18  203.38
  14  14  12 1872.91  204.78
 -14 -14  14  227.18   38.40
 -14  14 -14  304.07   61.29
 -14  14  14  296.97   34.10
  14 -14 -14  276.27   31.20
 -15  -1  -1 2237.78  227.78
 -15  -1   1 2306.17  224.18
 -15   1  -1 2146.19  228.78
  -1  -1  15 2383.76  226.88
  -1  -1  15 2133.39  223.88
  -1   1  15 2129.39  226.08
   1  -1 -15 2073.19  225.28
   1  -1  15 2113.99  226.48
   1   1  15 2506.75  226.98
   1   1  15 2479.55  223.38
  15  -1  -1 2009.30  224.58
   1 -15  -3    1.40    2.90
   1 -15  -3    1.80    6.50
 -15   1   3    0.90    4.10
  -3 -15  -1   -0.60    3.50
  -3   1 -15    2.30    5.90
   3  15  -1   -2.30   10.20
  -3  15   1   -5.50    9.50
  -1  -3 -15   -3.90    6.10
  -1 -15   3   -0.80    3.90
  -1  15  -3    3.90   15.10
  -1   3  15    0.00    5.70
   3   1  15    2.00    1.70
   1  -3  15   -3.10    6.50
   1  -3  15   -0.60    2.00
   1  15   3   -4.70    8.10
  -3  -1  15    1.10    6.00
  -3  -1  15    0.80    2.90
   3 -15   1    0.80    3.30
   3   1  15   -0.20    6.50
 -15  -3   1    4.80   18.40
 -15   3  -1   -6.30   10.90
 -15   3   1    0.10    8.50
  -3  -1 -15   -0.70    6.20
   1   3  15    2.40    5.20
   3 -15  -1    0.90    4.60
  -3 -15   1   -2.80    3.60
  -3   1  15   -2.60    5.40
  -3   1  15    1.30    3.00
  -1 -15  -3    4.00    3.60
  -3  15  -1    5.00   14.00
  -1  -3  15    1.30    5.80
  -1  -3  15    0.10    2.60
  -1  15   3   -2.50    7.30
   1  15  -3    3.00   14.00
   3  15   1    0.10    9.30
   3  -1  15   -1.90    5.90
   3  -1  15    1.30    2.80
 -15   1  -3   10.90   13.40
   1  -3 -15    1.10    6.10
  15  -3   1   -1.50    4.30
 -15  -3  -1    1.50    7.90
  15  -1  -3    0.60    3.40
 -15   3  -3  294.17   47.00
  -3  -3 -15  299.57   40.60
  -3  -3  15  334.47   39.90
  -3  -3  15  399.76   38.50
  -3   3  15  381.66   36.70
  -3  15  -3  434.36   49.99
  15  -3   3  300.97   38.70
  15   3   3  349.07   38.60
  15   3   3  382.26   38.70
   3  -3  15  353.16   41.20
 -15   3   3  368.86   39.80
  -1  -5 -15   58.69   12.00
   1  -5  15   55.89   14.00
   5   1  15   73.99    7.90
   1 -15  -5   59.09    9.40
   5   1  15   70.29   14.70
  15  -1   5   44.60    9.90
  -1   5  15   74.19   13.00
   1  15   5   91.29   15.40
  -5  -1  15   59.99   12.70
  -5  -1  15   37.60   12.80
  15  -1   5   53.79   12.20
 -15   1   5   55.39    8.80
 -15  -5   1   37.50   24.20
 -15   5  -1  114.19   23.90
  -1  15  -5   37.80   19.50
   1 -15   5   58.19   10.00
   5  -1  15   71.79   14.60
  -1  -5  15   61.39   13.80
  -5 -15   1   65.09   11.50
  -1  15   5   69.49   15.90
  -5  -1 -15   50.29   14.30
  -5   1  15   66.19   12.90
  15   1   5   73.19   12.80
  15   1   5   70.89   10.00
   5  15   1   84.09   15.50
  15  -1  -5   48.60    9.20
   1  15  -5   93.59   26.30
  -5  15  -1   94.49   27.40
 -15  -1   5   60.69   27.30
   1   5  15   64.19   12.80
  -1  -5  15   63.39    9.30
  -5 -15  -3  251.47   29.10
   3  -5  15  222.58   30.40
   3  -5  15  261.57   27.90
   5   3  15  226.58   31.10
  15  -5  -3  206.18   28.80
  15   5   3  257.67   28.40
  -5  -3  15  230.08   30.10
  -5   3 -15  250.37   30.00
   3  15   5  299.67   30.60
  -5  -3  15  237.58   30.20
  -3  15  -5  224.18   42.70
 -15   5  -3  242.08   41.50
  -3   5  15  254.87   29.70
   5 -15   3  278.67   29.30
   5  15  -3  227.18   34.40
  -3 -15  -5  276.77   28.50
   3  -5 -15  280.27   29.90
  -3  -5  15  281.47   31.60
  -5 -15   3  307.47   30.70
 -15   5   3  285.97   32.10
  -3  15   5  244.78   33.50
   5  -3  15  241.08   31.70
 -15   3  -5  246.38   40.40
  -5   3  15  236.58   29.80
  -3  -5  15  303.47   29.10
  15   3   5  222.98   29.00
   3   5  15  247.48   30.00
  -5   5 -15  523.45   50.09
   5   5  15  485.05   52.19
 -15   5  -5  414.06   62.19
  15   5   5  487.35   50.19
  -5  -5  15  483.25   51.59
  -5  -5 -15  536.85   54.39
  -5  -5  15  449.76   51.29
   5 -15  -5  386.36   49.00
   5  -5  15  433.66   51.99
  -7  -1  15  546.35   57.69
  15  -1   7  521.95   58.09
   7   1  15  461.95   57.49
   1 -15   7  578.34   56.39
  -1 -15  -7  470.35   58.99
   7 -15  -1  573.94   56.49
  -7   1  15  578.64   57.79
   1  -7 -15  623.54   58.59
  -1  -7  15  514.05   57.99
 -15   7   1  453.25   60.99
  -7  -1 -15  530.45   59.49
  -7  15  -1  439.46   65.49
   7  15   1  587.54   57.29
  15   1   7  502.75   55.79
  -7 -15  -3   -1.30    4.90
  -3   7  15    3.90    6.40
 -15  -7   3   -6.20   18.60
  -3  15  -7    7.50   17.40
  -7  -3  15    7.70    6.60
   7   3  15    5.40    7.20
  15  -7  -3    6.30    5.40
  15   7   3    4.30    4.50
   3  -7  15    2.90    7.90
   3  -7  15    6.10    3.60
  -7  -3  15   11.70    9.40
   7  15  -3   13.00   10.20
  15  -3   7    3.90    7.30
  -3 -15   7    2.20    4.50
 -15   7  -3   21.20   18.20
   3  15   7   -1.90    6.30
   3 -15  -7    5.40    3.30
   3 -15  -7   -0.80    6.00
  -7   3 -15    5.30    6.70
  -7  15   3    7.50   12.90
  -3  -7 -15   15.20    9.20
   7  -3  15    5.70    7.90
   7  15   3    2.20    5.40
  15  -3  -7    3.50    3.20
   3 -15   7   11.50    5.00
   3  15  -7    2.50   14.50
  -3  15   7    9.10    8.10
  15   3   7   12.00    4.10
   7 -15  -3   12.50    4.90
  -7 -15   3    3.40    6.90
  -7   3  15   11.00   12.40
  -3 -15  -7    3.70    3.20
  15   3   7    5.70    5.60
 -15   7   3   -0.40    8.00
  -7  -3 -15    2.20    6.50
   3   7  15    0.40    6.20
  -7   3  15    3.30    5.60
  -3  -7  15    3.40    7.20
  -3  -7  15    3.00    4.10
 -15  -7  -3   18.50   21.10
   3  -7 -15    3.60    6.20
  -7  15  -3   11.00   18.90
   7   5  15   -4.40    6.30
 -15   5   7    0.40    6.90
 -15   7  -5   -7.90   17.60
 -15  -7   5   -2.90   18.70
   7 -15   5   -0.90    4.60
   7  15  -5    1.70    9.70
  -7  15   5    0.40   10.10
  -7 -15  -5    0.10    6.50
  15  -5   7    3.10    4.70
  -7   5 -15    5.70    5.50
  -5  15  -7   -7.00   18.70
   5 -15  -7    2.60    4.80
  -7  -5  15    3.30    7.90
 -15  -5  -7   -1.70   17.10
  -5 -15   7   -0.90    4.90
  -5  -7 -15    1.70    9.00
  15   7   5   -1.00    5.20
  -7  -5  15   -1.90    5.10
  -5   7  15    1.30    5.60
   5  -7  15   -0.80    7.90
   5  -7  15    0.40    3.30
   5  15   7   -3.70    5.20
   5 -15  -7    1.00    2.60
   7 -15  -5    0.90    3.20
  -7   5  15    2.00    5.30
  -7   5  15   -4.40   10.00
   7  15   5   -0.60    5.30
  -7  15  -5  -12.80   17.40
  -5  -7  15   -0.10    6.30
  -5  15   7    0.20    7.90
   5   7  15   -2.80    6.30
   5 -15   7    1.10    4.20
   5  15  -7   13.60   15.80
  -5 -15  -7    1.80    3.20
  15  -5  -7    3.20    3.80
   7  -5  15   -1.60    5.80
   7  -5  15    0.50    3.20
  15   5   7   -3.60    5.60
 -15  -7  -5    6.00   19.00
  15  -7   5   -0.10    4.30
  -5  -7  15    3.90    5.50
 -15   7   5    0.60    6.80
  -7  -5 -15   -2.80    8.40
  -7   7  15 1058.89  102.99
   7  -7  15 1015.60   99.29
   7  15  -7 1053.09  102.99
  15   7   7  984.60   96.09
  -7  -7  15  814.22   96.39
 -15   7   7  817.72   95.09
 -15  -7  -7  864.81  109.79
  -7 -15  -7  832.02   95.49
  15  -1   9  857.81   89.89
   1 -15  -9  821.12   90.09
   1  -9  15  848.02   90.49
   1  -9  15  781.42   86.99
  -9  -1  15  929.01   89.09
 -15   1   9  895.81   86.79
   9  15  -1  798.42   87.79
  -9   1 -15  761.02   90.39
 -15   9  -1  748.63   95.19
  -9   1  15  743.23   94.89
   9  -1  15  793.92   89.79
  15   1   9  800.22   88.89
  -9  -1 -15  800.12   90.79
  -9   1  15  997.40   89.69
  -1 -15  -9  850.81   86.39
   1  15  -9  826.42   98.79
 -15   9   1 1005.10   94.89
  -1  -9  15  984.10   90.99
 -15   3   9  119.69   37.20
  -9  -3  15  168.08   29.30
  -9  -3  15  174.18   22.70
   3 -15  -9  186.28   19.30
  -9  15   3  220.08   31.50
  -3  -9 -15  213.98   26.40
  15   9   3  199.88   23.80
  -9 -15  -3  194.38   25.80
   3  -9  15  139.99   24.80
  -3   9  15  184.08   22.40
   9   3  15  156.28   23.80
  15  -3   9  144.49   23.60
  15  -3   9  193.08   21.70
 -15   9  -3  184.68   36.80
   3  -9  15  169.18   20.00
  -9  -3 -15  207.48   26.80
   3   9  15  195.68   23.40
  15   3   9  151.08   22.90
  -3  -9  15  148.39   23.60
  -9   3  15  162.98   30.50
   9 -15  -3  149.88   20.40
 -15  -9  -3  155.08   38.40
 -15   9   3  189.78   27.10
 -15  -3   9  150.78   38.80
   9  15   3  140.09   21.50
   9  -3  15  171.58   24.50
  15  -9  -5  270.77   34.60
   5  -9  15  366.16   39.40
  -9  -5  15  272.37   40.70
   5  15   9  358.36   36.20
  -5  15  -9  218.38   45.60
 -15   9  -5  414.16   55.99
   5  -9  15  340.37   34.10
  15  -5   9  355.96   38.60
  -9   5 -15  303.77   35.70
   5 -15  -9  302.07   34.70
  -9   5  15  316.67   47.00
  -9  -5 -15  249.88   40.70
   9  -5  15  369.86   38.50
  -5  -9  15  309.77   36.80
  -5  15   9  358.06   36.80
 -15   9   5  284.57   36.70
   9  -5  15  280.97   33.30
  15   5   9  248.48   35.40
   9  15   5  276.07   34.60
 -15   9  -7 1480.95  157.88
   7  -9  15 1345.47  145.79
   9  15  -7 1336.07  146.49
   9   7  15 1430.66  144.69
  -7  -9 -15 1330.37  145.99
  15   9   7 1379.06  143.29
  -9   7 -15 1513.85  142.79
  15  -7   9 1255.27  142.79
  -7   9  15 1564.64  143.99
  -9  -7  15 1363.36  143.69
  -7  -9  15 1389.06  144.19
   7 -15   9 1571.54  143.39
  -9   7  15 1285.77  152.38
  15  -7  -9 1449.95  142.99
   9  -7  15 1507.15  146.39
  -9  15  -7 1153.98  153.28
  -7  15   9 1342.07  143.49
  -9  -9  15 2072.59  190.28
   9   9  15 1831.32  189.88
  15  -9  -9 1557.24  187.48
 -15   9   9 1951.80  188.98
  -9 -15  -9 1663.83  189.18
   9  -9  15 1872.81  191.78
  15   9   9 2045.70  189.68
  15 -11  -1  121.09   15.80
  11 -15   1  109.89   14.90
 -15  11  -1  166.48   30.80
   1 -15 -11  101.19   18.50
 -11   1 -15  121.29   20.20
  11   1  15   85.09   18.10
 -15   1  11   74.59   29.70
   1 -15 -11  126.09   12.40
 -11  -1  15   70.69   24.40
  15  -1  11   97.29   17.70
  -1  11  15   81.59   16.90
   1  11  15   75.79   16.90
  15   1  11  102.69   17.20
  -1 -11  15  136.49   15.30
   1 -15  11  119.99   14.50
  11  -1  15  122.89   19.40
  -1  15  11   93.69   15.90
 -11   1  15  116.19   17.40
   1  15 -11   82.19   26.60
  -1 -11  15   84.09   18.20
  11  15   1   84.39   14.30
 -15  -1  11   64.99   29.00
  11   3  15  295.37   34.80
  11   3  15  344.57   38.90
 -15   3  11  278.37   53.39
 -11   3 -15  286.47   39.20
 -11  -3  15  390.76   38.30
  -3  11  15  331.57   38.30
   3 -11  15  342.97   40.60
  -3  15 -11  293.47   52.89
  -3 -15 -11  319.27   41.20
  -3 -11  15  374.16   40.00
  11  -3  15  362.96   40.10
  15   3  11  324.67   38.80
 -11   3  15  286.77   49.00
  11   5  15  275.07   36.20
 -15   5  11  363.56   34.70
 -11 -15  -5  340.57   40.50
   5 -11  15  298.07   38.10
  15  11   5  288.27   37.90
 -11  -5  15  276.57   34.70
 -15  11  -5  323.77   53.49
   5 -15 -11  268.77   32.20
   5 -15 -11  341.77   35.20
  11  15  -5  337.57   34.90
  15  -5  11  273.87   37.10
  11  -5  15  292.87   33.10
  11  -5  15  310.67   37.90
  -5 -11  15  252.97   35.80
  -5 -11  15  349.47   35.40
   5  15 -11  295.17   46.40
 -15 -11  -5  256.07   47.20
   5  11  15  276.17   34.70
 -11   5  15  217.78   44.60
 -11  15  -5  272.47   50.59
  11  15   5  329.57   34.40
  15   5  11  313.07   36.10
 -15  -7 -11  -14.90   14.30
 -15  11  -7   -0.20   21.50
 -11  15   7    6.10    9.00
  15  -7  11   -2.90    8.70
  11   7  15    5.10    7.50
 -15   7  11    3.90    5.30
  -7  15 -11    5.10   23.90
 -11 -15  -7  -10.10    7.30
   7 -15 -11    1.10    4.10
  -7 -11 -15    1.50   10.00
  15  11   7    0.10    6.40
   7 -11  15    6.40    4.80
  -7  11  15    4.20    6.40
  11  15  -7    5.10    8.80
   7  15  11    0.10    6.70
   7 -11  15    0.10    9.30
 -11  -7  15    3.10    7.00
 -11  -7  15   -2.50   12.00
 -15 -11  -7    5.10   16.10
  -7  15  11   -1.70    7.50
   7  11  15   -0.20    6.40
 -11   7  15   -0.10    5.60
 -15  11   7    7.80    7.70
  11 -15  -7    0.10    3.90
  15   7  11    3.40    6.50
 -11   7  15   -3.00   15.10
  -7 -11  15    1.10    7.00
  11  -7  15    5.20    9.20
 -15  -7  11   -9.20   16.20
  11  15   7   -1.20    6.10
   7 -15  11    2.00    4.40
 -11  15  -7   -5.00   20.40
   7  15 -11   11.00   16.40
   9  15  11   93.79   16.30
  15  -9  11   81.99   13.50
  -9  15 -11  179.88   44.40
  11   9  15   64.89   16.20
  15 -11  -9   82.69   13.10
 -15  -9 -11   54.99   25.30
 -11  15   9  111.89   16.70
   9  15 -11  147.09   33.50
  15  -9 -11   91.49   12.80
  11 -15  -9  100.09   13.80
 -15 -11  -9   96.89   29.10
 -11  15  -9   74.99   33.90
  11  15   9   91.69   16.10
  15  11  11   21.00    9.60
 -15 -11 -11   30.30   24.20
  15 -11  11   28.80    8.40
  11  15  11   38.60    9.90
  15 -11 -11   23.10    6.60
 -15  11 -11   17.10   26.80
 -15  11  11   34.20   10.00
 -11  11  15   14.80    8.30
 -11  11  15   22.30   25.70
 -11  15 -11   26.10   28.90
 -11  15  11   16.50    9.10
  11 -15 -11   35.50    8.00
  11 -11  15   19.80   12.60
  11  11  15   29.30   10.30
 -15 -11  11   37.60   20.80
 -13  15   1   15.80   15.50
  13   1  15   19.40    9.50
  13   1  15   20.60    5.90
  15  -1  13   15.90    5.70
 -13  -1  15   21.30    8.30
 -13  -1  15    8.30   16.60
  -1 -13 -15    1.20    6.50
  13 -15   1    7.60    5.50
  15  -1  13   11.00    8.60
   1 -15 -13   24.30    9.90
 -15   1  13   19.70    8.00
 -15   1  13   41.00   23.10
  -1  13  15   11.70    6.50
  -1  15 -13   27.00   22.80
   1  15  13   -0.20    7.50
 -15  13  -1    4.70   15.30
   1 -13 -15    3.60    8.20
  13 -15  -1    9.80    5.60
  15   1  13   15.30    8.30
   1  13  15   17.60    8.80
 -13   1  15    3.10    6.50
  -1 -15 -13   10.70    9.60
 -13  15  -1   37.20   19.80
  13  -1  15    6.20    8.50
  13  -1  15   16.40    5.50
   1  15 -13   -3.30   18.20
 -15  13   1   14.00   14.30
 -13   1  15   16.20   18.40
  13  15   1    9.60    6.70
  -1  15  13   21.40    9.10
 -15  -1  13   10.30   19.20
 -13 -15   1   13.80   14.70
  15   1  13   15.60    5.10
   3 -13  15 1419.96  126.29
  -3  13  15 1233.98  127.89
  13   3  15 1099.49  128.09
  15  -3  13 1270.47  129.59
  15 -13  -3 1038.60  126.69
 -13  -3  15 1244.88  127.09
 -15 -13   3 1422.36  139.69
  13   3  15 1229.28  125.29
  15  13   3 1094.09  126.29
  -3  15 -13 1227.78  140.89
  15   3  13 1318.77  128.99
  13  -3  15 1362.56  126.69
 -15  13   3 1328.87  132.49
  13 -15  -3 1054.99  126.19
  13  -3  15 1122.39  128.49
 -13 -15   3 1053.39  133.09
   3  15 -13 1476.45  140.69
  13  15   3 1303.47  126.69
   5  13 -15 1481.95  161.38
 -15   5  13 1437.76  150.38
  13   5  15 1203.98  150.68
  15  13   5 1393.76  149.79
  -5  13  15 1402.06  153.98
  15  -5  13 1518.15  153.18
  15   5  13 1408.86  151.38
  13  -5  15 1672.43  150.18
  15 -13   5 1670.03  150.48
 -15  -5  13 1459.85  162.98
 -13   7 -15  122.69   17.80
 -13 -15  -7   85.49   21.80
 -15  13  -7   42.70   39.50
  15  -7  13   82.69   13.60
  15  13   7   91.89   16.30
  -7  13  15  112.89   17.20
  -7  15 -13  168.08   44.70
  15  -7  13   87.39   19.70
   7  13 -15   60.49   24.80
 -15  -7 -13   82.99   28.80
 -15   7  13   48.30   28.40
  15 -13  -7   81.39   14.00
  15   7  13  104.49   17.10
 -13 -15   7  105.89   24.50
  13 -15  -7   87.29   13.80
  13  15   7   74.09   14.70
  13  -7  15   98.79   20.30
  13  -7  15   93.49   13.20
 -15   7 -13  101.99   19.50
 -15 -13  -7   78.49   25.80
 -13   7  15  107.49   16.80
 -15  13   7   93.59   17.50
   7  13  15   63.29   17.60
   7  15 -13  142.09   34.80
  -7  15  13   80.49   16.30
  -7 -13  15  110.49   17.50
 -13  15   9    2.10    6.70
 -15  -9 -13   -6.50   15.50
 -15  13  -9    3.90   25.30
 -15   9  13    0.70    6.30
 -15   9  13    4.80   20.70
  15 -13  -9    6.70    5.60
 -13 -15  -9   13.50   11.80
  -9  15 -13   -0.60   25.40
   9 -15 -13    5.60    4.00
  -9  13  15    0.40    7.20
   9 -13  15   11.30    5.60
   9  13 -15    8.20   20.40
  15  13   9    0.90    6.90
  13   9  15    2.50    7.80
 -15 -13   9   -0.30   15.30
  15  -9  13    7.10    5.40
  15   9  13    7.30    8.70
  13  -9  15    6.40    4.80
   9  13  15    0.20    6.90
  13 -15  -9    2.10    4.60
  13  15   9    7.30    6.70
 -15  -9  13   -0.70   16.10
  -9 -13  15    5.60    8.40
  13  -9  15    8.80   10.40
 -15  13   9    1.40    6.40
 -13   9  15   15.60    7.80
 -13   9  15   18.00   26.20
 -13 -15   9   -0.60   11.70
 -13  15  -9    7.10   24.90
  -9  15  13    3.50    7.40
 -15 -13  -9    5.40   19.30
   9  15 -13   -1.20   17.70
  13  11  15  519.85   57.49
 -11  15 -13  579.54   79.69
 -11  13  15  419.16   55.89
 -15  13 -11  423.66   75.19
  15  11  13  600.24   58.39
 -13  11  15  364.36   73.99
  11  13  15  492.55   56.69
 -11  15  13  492.75   56.19
 -13  15 -11  607.14   79.19
  13 -15 -11  574.44   55.49
 -15  13 -13 1066.39  126.89
 -13  13 -15 1130.29  128.69
 -13  15  13  931.91  105.59
  13 -13  15  875.91  103.99
  15 -13 -13 1061.09  104.39
  15 -13  13 1098.39  105.09
  15  13  13  975.80  110.29
  -1  15 -15 1307.57  141.69
  15  -1  15 1048.70  117.19
  15   1  15 1079.59  117.09
 -15   3  15   65.49   14.60
 -15   3  15   68.59   27.40
 -15  15  -3   56.99   24.30
 -15  15   3   52.59   20.50
  -3 -15 -15   92.29   18.60
  -3 -15  15   53.09   11.50
  -3  15 -15   51.29   28.20
   3  15 -15   42.90   23.80
  15  -3  15   62.39   11.20
  15   3  15   74.89   17.00
  15   3  15   72.69   10.00
 -15  -5 -15   21.10   22.70
 -15   5  15   72.59   14.20
 -15  15  -5   16.10   23.00
  -5 -15 -15   45.60   15.10
  -5  15  15   72.59   15.40
   5 -15 -15   45.40   14.20
   5  15 -15   43.90   23.70
  15 -15  -5   95.09   16.10
  15 -15   5   55.29   11.30
  15  -5  15   68.29   18.10
  15  -5  15   65.79   11.20
  15   5  15   62.99   15.40
  15  15   5   74.79   14.60
 -15  -7 -15  134.39   40.20
 -15  -7  15  104.29   31.50
  -7 -15 -15  133.99   24.70
  -7 -15  15  137.69   20.00
  -7  15  15  129.89   21.20
   7  15 -15  178.48   40.60
  15  15   7  177.18   21.80
 -15  -9  15  630.34   70.49
 -15  15  -9  471.55   75.79
  -9  15 -15  463.05   74.39
   9  15  15  600.54   60.09
  15 -15  -9  489.75   57.69
  15  -9  15  478.85   62.09
  15   9  15  587.14   61.79
 -15 -15  11   33.30   17.50
 -15 -11  15   -1.10   14.10
 -15  11 -15   40.30   32.00
 -15  11  15   17.80    8.90
 -15  11  15   16.30   24.70
 -15  15 -11    7.60   26.80
 -15  15  11   26.10   10.20
 -11  15 -15   29.20   30.40
 -11  15  15   14.90    8.80
  11 -15  15   28.70    8.20
  11  15  15   14.80    9.20
  15 -15 -11   16.70    6.10
  15 -11  15    5.50    5.40
  15  11  15   18.00    9.90
  15  15  11   10.70    9.50
 -15  13 -15   44.70   33.20
 -15  13  15    3.40    8.50
 -15  13  15   -1.40   29.80
 -15  15 -13   -0.80   27.30
 -13  15 -15    4.30   28.40
 -13  15  15   29.60   10.20
  13  15  15   23.10   10.40
  15 -15 -13   16.00    5.80
  15 -13  15   10.20    6.20
  15  13  15   10.80    9.90
  15  15  13   26.40   10.90
  15  15  15  522.25   59.89
 -16   0   0 7623.04  806.02
   0   0  16 8478.45  806.62
 -16   0  -2 1866.61  190.98
 -16   0   2 2006.70  184.98
  -2 -16   0 1920.51  186.48
   0  -2  16 1929.31  187.68
   0  -2  16 1866.71  184.78
   2 -16   0 1708.13  185.58
  16   0  -2 1919.51  186.08
   0  16   2 1632.54  189.78
   2   0  16 1809.82  187.68
   2   0  16 1687.03  184.28
  16  -2   2 1402.16  130.49
   2 -16  -2 1172.98  129.99
 -16  -2  -2 1223.68  133.29
 -16   2  -2 1133.79  135.09
  -2  -2  16 1243.08  130.89
  -2  -2  16 1207.28  128.39
  -2   2 -16 1495.45  130.29
   2 -16   2 1177.08  128.69
   2  -2  16 1271.97  131.09
   2  -2  16 1227.98  128.19
   2   2  16 1413.06  131.79
  -2 -16   2 1412.06  129.99
 -16   2   2 1088.69  129.59
   4 -16   0  460.75   50.39
   0  -4 -16  470.05   51.39
   0  -4  16  494.35   52.89
   0  -4  16  408.56   49.10
   0   4  16  454.65   51.89
   0  16  -4  586.24   62.59
   0  16   4  392.76   53.29
  -4   0  16  492.55   52.09
  -4   0  16  563.64   50.49
   4   0  16  438.86   52.49
  16  -4  -2   38.00    9.00
   2  16   4   45.10   11.90
  -4   2 -16   31.70    9.30
  -2  16  -4   80.99   23.10
   2 -16  -4   51.09   12.80
   4   2  16   44.20   11.00
  -2  -4 -16   55.69   11.30
 -16   4  -2   99.39   23.90
   2  -4  16   53.89   14.00
  -4  -2  16   38.50   10.70
   4  16  -2   46.50   16.10
  -4  16  -2   22.80   18.10
  -2  16   4   68.39   17.80
  -2  -4  16   66.39   14.10
  -2  -4  16   33.70    7.30
   2  16  -4   24.20   16.60
  -4  -2 -16   44.10   10.90
 -16  -4  -2   36.90   24.60
  -4   2  16   51.99   12.20
  16   2   4   74.69   13.60
 -16   2  -4   46.50   17.90
  16  -2  -4   41.60    8.40
   2   4  16   43.10   10.60
   4  16   2   52.79   14.00
   4  -4  16   38.90   12.20
  16  -4   4   81.59   12.10
   4  -4  16   75.29    9.70
   4  16   4   62.59   12.90
 -16   4  -4   41.60   19.10
   4 -16  -4   69.09   11.40
  -4  -4  16   75.39   10.90
  -4   4 -16   74.49   11.90
  -4   4  16   45.40   12.50
  -4  16  -4   52.69   22.70
  -4  -4  16   40.00   12.90
  -4 -16   4   54.69   10.90
  -4 -16  -4   70.19   10.40
   0 -16  -6  319.17   38.30
   6   0  16  390.86   42.20
  -6   0 -16  333.87   41.80
  -6   0  16  394.16   41.90
  16   0   6  381.66   41.50
 -16   6   0  396.06   47.30
   0  16  -6  368.26   52.09
  -6  16   0  339.17   49.20
  -6   0  16  352.76   42.00
   0  -6  16  367.16   38.80
 -16   6  -2   60.69   20.70
   6  16  -2   24.20   12.10
   2 -16  -6   43.50    7.70
   2 -16  -6   21.90   10.00
 -16   2   6   25.40    7.20
   6   2  16   45.90   10.80
  16  -6  -2   17.60    7.10
 -16  -6   2   31.80   24.90
   2  -6  16   18.60    9.30
   2  16   6   21.60    8.60
  -6  -2  16   34.90   10.60
  -6  -2  16   12.10    8.10
  -2  -6 -16   42.90   12.90
  -2  16  -6   18.80   18.60
  16  -2   6   38.90   11.10
  -6 -16  -2   25.80    7.90
  -6   2 -16   17.50    8.20
  -2   6  16   28.60    9.00
  -6  16   2   58.79   19.10
  16  -2  -6   27.50    7.10
   6 -16  -2   42.40    7.80
  -6 -16   2   30.00    8.80
  -6  -2 -16   38.80   11.70
 -16   6   2   31.80   11.40
   2  -6 -16   36.30   11.10
   6  16   2   51.39   11.90
  -2  16   6   36.20   11.50
 -16  -2   6    6.70   19.30
 -16  -6  -2   12.50   21.60
   2  16  -6   40.80   18.70
  -6  16  -2   30.10   19.30
   6  -2  16   18.40    9.60
   6  -2  16   38.40    5.90
  -2  -6  16   25.90    9.40
  -2  -6  16   16.40    6.00
  -6   2  16   41.00   11.00
  -6   2  16   38.90   10.80
 -16  -6   4  118.69   37.20
  -6  -4  16  144.29   21.10
   4  16   6  175.08   20.50
   6   4  16  120.99   21.10
 -16   4   6  140.79   18.10
   4  -6  16  143.59   22.00
  16   6   4  155.78   18.60
   4 -16  -6  119.69   18.90
   4  -6  16  165.68   17.80
  -4   6  16  116.49   19.30
  -6   4  16  120.89   19.30
  -4  -6  16  150.98   20.60
 -16   4  -6  108.39   34.80
  16  -4  -6  155.18   18.20
   6  16   4  142.89   19.70
   4   6  16  148.39   21.00
  16  -6   4  159.78   19.50
  16   4   6  142.39   19.30
   6  -4  16  163.98   22.80
  -6   6  16  134.29   18.70
 -16  -6  -6  112.29   35.60
 -16  -6   6  123.89   36.00
 -16   6  -6  143.59   38.60
 -16   6   6  111.09   17.60
  -6  -6  16  108.79   18.40
   6 -16   6  142.19   17.60
   6  -6  16  142.99   21.40
   6   6  16  131.89   20.50
   6  16  -6  104.59   25.60
   6  16   6  133.99   18.70
  16   6   6  158.08   18.90
   8   0  16 2764.12  289.47
  16  -8   0 3076.19  289.17
   0   8  16 2518.95  288.17
  -8   0  16 2915.81  289.07
   0 -16  -8 2785.32  286.47
   0 -16  -8 2477.55  289.67
  -8   0 -16 3307.27  291.07
  -8  16   0 2943.81  295.57
   0  -8  16 2456.75  289.27
   0  16  -8 3203.08  298.97
  16   0   8 3003.80  289.57
   2  -8  16 1968.80  187.78
   2 -16  -8 1698.93  183.48
  -8  -2  16 1842.52  185.78
  -2 -16   8 1827.12  185.08
   8   2  16 1525.35  182.88
   8   2  16 2009.00  187.28
  16  -8  -2 1810.62  185.48
  16  -2   8 2045.40  187.38
  16  -8   2 1641.74  185.28
  -2 -16  -8 1703.43  183.18
   2  16  -8 1918.41  194.58
  16   2   8 1762.42  185.58
  16   2   8 2065.79  184.58
  -2  16   8 1717.13  185.58
  16  -4   8  731.73   82.29
  -8  -4  16  726.93   80.69
  16  -4   8  803.32   80.19
   8   4  16  710.03   80.89
  16  -8  -4  876.51   80.59
   4  -8  16  766.22   78.59
  16   8   4  817.52   79.09
   4 -16  -8  843.82   78.29
 -16   8  -4  600.24   89.19
  16   4   8  697.43   79.89
   4   8  16  856.51   81.09
  -4  16   8  765.32   80.89
   8 -16  -4  822.52   79.09
 -16   8   4  629.44   81.39
  16  -8   4  733.93   79.79
   8  16   4  741.13   79.59
   4  16  -8  845.82   89.79
  16  -4  -8  668.03   78.59
 -16  -8  -4  819.02   96.79
   8  -4  16  805.12   81.99
  -4  -8  16  665.03   80.69
   6 -16  -8 1162.08  126.59
  16   8   6 1206.88  127.99
 -16   8  -6 1178.58  140.39
 -16   6   8 1233.88  127.69
  -6 -16  -8 1429.56  127.49
 -16  -8  -6 1338.27  144.69
   6 -16   8 1434.46  128.59
   6  16  -8 1410.46  136.99
 -16   6  -8 1356.76  142.99
  16   6   8 1138.09  128.29
  16  -6  -8 1240.58  127.39
  -6  -8  16 1123.29  128.99
  -6  -8  16 1097.79  128.69
   8  -6  16 1192.68  130.09
 -16   8   6 1293.27  128.89
   8 -16  -6 1172.68  126.99
 -16   8  -8 3424.66  384.06
  -8 -16  -8 3271.57  371.36
  -8  -8  16 3485.65  372.86
  -8   8  16 3819.42  372.66
 -16   8   8 4102.49  372.26
  16   8   8 3742.53  372.26
   8  -8  16 4203.28  375.66
  -8  16  -8 3325.87  383.16
 -16  -8  -8 3876.91  387.46
   8   8  16 3669.83  373.46
   0 -10  16 2164.18  202.58
   0 -10  16 1737.53  198.58
  10  16   0 2164.18  199.48
  16   0  10 1669.33  200.58
 -10   0 -16 2062.39  202.98
 -10   0  16 2266.67  201.28
   0 -16 -10 2145.09  197.98
   0  10  16 1899.61  200.48
   0  16  10 1679.83  200.18
  10   0  16 1889.21  201.48
 -10  -2  16  614.04   57.29
  10 -16   2  503.95   55.59
  16  -2  10  431.46   57.49
  -2 -16  10  543.65   55.79
 -10   2 -16  558.64   58.69
  -2  10  16  511.95   56.39
   2 -10  16  546.15   58.89
   2 -10 -16  488.05   56.59
  -2 -10  16  484.95   57.69
  -2  16  10  539.15   57.49
  10  -2  16  491.75   54.29
 -10   2  16  569.64   57.19
 -10   2  16  437.66   63.69
  10  16   2  441.56   55.09
 -16  -2  10  401.66   69.79
  16 -10   2  506.25   55.99
  -2 -16 -10  602.54   54.69
  16   2  10  575.34   57.49
  10 -16   4  164.38   23.00
 -16  10  -4  273.97   42.50
  -4  16 -10  126.59   40.60
  16  -4  10  145.49   25.80
 -10  16   4  159.98   30.60
   4  16  10  195.18   25.20
  -4  10  16  217.08   24.80
  10   4  16  165.28   26.00
  16   4  10  169.88   22.10
  10  -4  16  222.88   27.80
 -16  -4  10  245.88   44.00
  -4  16  10  170.58   25.20
  -4 -10  16  236.98   27.20
  -4 -10  16  203.78   23.60
   4  10  16  177.28   25.20
 -10  16  -4  279.57   43.10
 -10  -4 -16  167.78   27.90
  -4 -16 -10  223.48   21.30
  10   6  16  266.07   29.70
 -16  10  -6  274.67   47.60
  -6  16 -10  180.78   45.40
 -10  16   6  171.18   30.60
  -6 -10 -16  241.98   30.30
 -10   6 -16  219.88   27.40
 -16  -6 -10  256.97   44.80
 -10   6  16  191.98   26.70
 -16  10   6  263.27   29.90
  -6  16  10  209.98   28.50
   6  10  16  184.88   27.80
  10 -16  -6  214.88   25.40
 -16  -6  10  258.07   44.50
 -10 -16   6  184.08   30.50
   6 -16  10  245.98   26.40
 -10  -8  16 2181.18  200.98
 -10  -8  16 2165.28  205.38
 -16  10  -8 1821.32  212.78
 -16  -8 -10 2222.88  216.38
  10  16  -8 2029.70  202.98
   8 -10  16 2143.59  203.18
  -8  16 -10 1736.43  211.08
  10  -8  16 2115.29  198.88
  -8 -16 -10 1775.82  197.98
  16   8  10 1704.33  199.58
  16 -10   8 1855.71  203.58
  -8 -10  16 2224.28  201.68
  16  -8 -10 1702.13  198.28
  10  -8  16 2177.28  203.18
 -10  16  -8 1975.60  214.18
   8  16 -10 2175.48  208.08
  -8 -10  16 1660.73  200.58
  10  16   8 1685.03  199.08
 -16 -10 -10 1653.93  193.68
 -16  10 -10 1827.32  223.08
 -10 -16  10 1913.21  183.58
 -10  16 -10 1452.85  192.68
  16  10  10 1929.01  181.18
  16 -10 -10 1881.71  179.18
  10  16  10 1780.02  180.08
  10 -10  16 1582.54  182.18
 -16   0  12  227.38   46.30
  12  16   0  197.78   26.40
  12   0  16  270.17   31.10
   0 -12  16  226.08   31.10
 -12   0 -16  201.28   30.80
  16   0  12  216.98   26.50
  16   0  12  264.97   30.20
   0  16 -12  266.57   44.70
 -12  -2  16    6.70    7.30
  12  16  -2    4.10    5.50
 -12  16   2    3.40   14.20
  12 -16   2    3.30    4.50
   2  16  12    6.80    8.00
  16 -12  -2    5.40    6.10
 -12   2 -16    3.50    8.50
 -16   2  12   15.10   22.00
   2 -12  16    1.30    9.20
  16  -2  12    4.40    8.60
  -2 -16  12    5.40    5.50
  -2  16 -12   16.50   20.30
 -12  -2  16    5.50   14.10
  -2 -12 -16    4.40    7.00
  12   2  16    6.00    8.30
  12   2  16    7.00    3.50
  -2  12  16    2.40    8.00
 -16  12  -2   -4.70   15.30
   2 -16 -12    0.50    6.80
  12  -2  16    3.60    6.60
 -16 -12  -2   -0.70   17.50
   2 -12 -16    5.40    6.20
   2  12  16    4.00   11.30
  16 -12   2   -0.20    5.40
 -12   2  16    5.40    7.30
 -12   2  16   17.10   17.10
  -2 -16 -12    4.70    9.60
  -2 -12  16   12.90    5.80
  -2 -12  16    9.40    9.50
  12  16   2    6.50    6.10
  16   2  12    8.00    7.40
  16   2  12    5.80    3.90
 -16  12   2    5.60   11.80
  12 -16  -2    2.00    4.40
  12  -2  16    7.80    4.50
 -12 -16   2   13.90   12.90
 -12  16  -2   16.90   17.90
   2  16 -12   -1.90   16.90
 -16   4  12  432.46   46.10
  -4 -12 -16  393.16   48.80
 -16  12  -4  334.77   57.99
 -12  16   4  346.17   50.79
   4  16  12  369.06   46.20
  16  -4  12  483.55   49.50
  12 -16   4  380.26   45.90
  12 -16  -4  496.75   46.00
  -4 -16 -12  411.16   49.60
 -12 -16   4  425.76   61.29
   4  16 -12  406.86   57.79
 -12   4  16  424.16   46.40
  16 -12  -6  156.98   21.60
 -16  12  -6  174.08   42.20
  16  -6  12  166.28   25.80
 -16   6  12  201.08   43.40
   6 -12  16  164.78   27.10
  16  12   6  191.58   23.20
  -6  16 -12   87.79   35.20
 -16  -6 -12  141.19   42.90
 -12 -16  -6  197.08   27.90
  12   6  16  139.69   24.00
   6  16 -12  152.18   37.00
 -12   6  16  143.29   40.90
  -6  16  12  160.28   23.80
  16 -12   6  185.18   21.70
  16   6  12  210.38   24.90
 -12  16  -6  138.29   41.10
 -16 -12  -6  158.08   35.90
   6  12  16  137.59   23.10
  12   8  16  165.88   27.60
   8  12 -16  188.08   42.50
 -16  -8 -12  202.48   42.70
   8 -12  16  152.58   30.30
  -8  12  16  229.38   27.30
   8 -16 -12  223.08   24.70
 -12  -8  16  270.47   36.70
   8 -12  16  179.08   27.10
 -16  12  -8  308.87   51.79
  -8 -12  16  215.78   28.10
  12  -8  16  212.38   30.80
  -8  16  12  219.08   28.40
  12 -16  -8  240.38   26.10
 -12 -16   8  267.17   33.80
  12  -8  16  186.78   24.60
  16   8  12  198.68   28.00
   8  16 -12  264.37   42.60
  16 -10  12   13.30    6.60
  10 -16 -12   10.70    5.00
  10  12 -16   16.60   23.20
 -16  10  12   17.40   10.70
 -10  16 -12   -2.20   26.40
 -12 -16 -10   20.10   11.30
  16  12  10    5.00    7.90
 -12 -10  16   -0.70   11.70
 -16 -12  10   10.30   17.50
 -16  12 -10    7.70   23.10
  12  10  16   13.50    9.80
 -12  16  10    3.50    7.40
  12 -16  10    5.20    5.50
 -10  12  16    5.80    7.30
  10 -12  16    3.40    4.70
  16 -12 -10   15.20    6.00
 -16 -10 -12   -9.90   16.80
 -10  16  12   10.60    7.30
 -12  10  16   10.20    8.00
  12 -10  16    6.80    5.10
  10  12  16    1.70    7.90
 -16  10 -12   10.80   26.50
  16 -12  10    8.00    6.00
  16 -10 -12    2.30    3.10
  16  10  12    0.80    8.00
 -16  12  10    6.20    7.30
 -12  16 -10   -3.60   23.00
  12 -10  16    9.10   11.60
 -12 -16  10    0.20   10.30
  10 -16  12   10.10    5.90
 -10 -12  16   -3.20    8.50
 -16 -12 -10    9.80   17.40
  12  16  10   -0.30    6.30
  12  16  12  277.67   33.40
 -16 -12 -12  255.97   44.50
 -12 -12  16  241.38   36.50
 -12  12  16  288.87   32.50
  12 -16 -12  258.57   30.30
 -12 -16  12  232.68   35.10
  16  12  12  265.67   33.30
  14   0  16  526.85   60.19
  16   0  14  638.64   63.99
  16   0  14  526.15   60.59
 -16   0  14  631.94   78.89
 -14   2 -16  158.88   26.50
  -2 -14 -16  125.89   24.30
  14   2  16  192.98   25.50
  14   2  16  179.48   20.20
 -16   2  14  180.78   41.50
  -2  14  16  207.38   24.60
 -16 -14   2  228.58   37.80
 -14 -16  -2  175.78   32.00
  16  -2  14  144.39   25.10
  14 -16   2  145.19   21.20
 -14  -2  16  227.48   38.10
  16  -2  14  131.39   20.50
  -2  16 -14  157.78   42.10
 -14 -16   2  119.59   29.90
   2  14  16  189.18   24.50
  14  -2  16  129.49   24.80
 -14   2  16  185.48   24.60
  16   2  14  198.08   25.00
  -2 -16 -14  197.28   26.90
 -14   2  16  190.38   39.30
  16   2  14  175.88   20.30
  -2  16  14  170.38   24.20
  16  -4  14   28.90   14.60
  16 -14  -4   16.70    7.60
  14   4  16   27.30   10.80
 -16   4  14   30.90    9.40
 -16   4  14   46.50   25.80
 -14 -16  -4   15.40   13.90
   4  16  14   18.30    9.30
  -4 -16  14   13.90    6.50
  -4  16 -14   41.00   27.40
   4  14 -16   25.70   22.00
 -16  14  -4   22.50   20.00
   4 -14  16    8.30    5.20
  14 -16   4   21.00    7.30
  -4  14  16   18.10    8.50
   4 -16 -14   25.10   10.50
 -14  16   4    4.50   12.90
  -4 -14 -16    2.60    9.70
  16   4  14   23.30   10.20
   4  16 -14    7.90   20.90
 -14 -16   4   22.00   16.60
 -14  16  -4    5.70   19.90
 -16 -14  -4   45.90   21.50
  -4 -14  16   29.90    8.40
 -14   4  16    2.20   23.20
   4 -14 -16   21.60    9.50
  14  -4  16   19.60   11.20
  14  -4  16   18.10    6.40
  -4  16  14   11.90    9.00
  -4 -16 -14   11.40   10.90
  14  16   4   18.70    7.90
 -16  14   4    0.80   11.20
   4  14  16   26.20    9.90
   6  14 -16    5.40   21.40
   6 -14  16    0.40    4.20
 -16  14  -6   -0.30   20.20
 -14  16   6    5.90   10.80
  14 -16   6    1.40    4.80
 -16   6  14   -8.60   17.70
 -14 -16  -6   -0.50   11.10
  16  14   6    7.00    8.60
  16  -6  14   -2.60    9.50
 -14  -6  16    1.30   16.00
  -6  16 -14  -22.30   22.60
  -6  14  16   -1.40    6.70
 -16  -6 -14    1.90   20.00
 -16   6  14   -1.40    7.00
  -6 -14 -16   -5.20    9.90
   6  16  14   -0.10    7.50
  16  -6  14    0.10    4.60
  -6 -14  16    1.50    5.50
 -14   6  16   -4.50   24.00
 -16  14   6    1.60    8.60
 -16  -6  14    7.00   17.60
 -14  16  -6   -5.70   17.80
  14  16   6    5.60    6.50
   6  14  16   -0.60    7.30
  14  -6  16    0.50    9.50
  -6 -16 -14   -0.20    9.30
  -6  14 -16   -1.90   22.80
  16 -14   6   -1.80    4.80
   6  16 -14    7.60   20.30
  14 -16  -6   -2.50    4.60
 -16 -14  -6    0.80   14.80
  -6  16  14    2.90    7.70
   6 -16  14    0.00    4.10
  14  -6  16    1.50    4.30
  16   6  14    2.40    7.80
  16  -8  14  537.05   60.29
  16  -8  14  542.45   55.49
 -16  14  -8  513.25   73.79
 -16  -8 -14  380.26   70.99
  14   8  16  525.55   57.99
 -16   8  14  451.55   73.49
  16  14   8  595.24   58.19
 -14   8  16  533.95   57.19
 -14  16  -8  486.65   72.39
  -8 -14  16  455.95   55.79
  -8  14 -16  384.06   70.09
  14  16   8  566.04   56.59
 -16 -14  -8  400.66   64.19
  14  -8  16  513.65   55.49
  16   8  14  551.94   57.39
  10  16  14  147.99   23.10
 -14 -16 -10  198.98   31.90
  14  10  16  139.59   23.70
  10 -14  16  169.58   20.50
 -14  16  10  159.48   23.40
  16  14  10  192.18   25.00
 -16  10  14   96.49   38.00
 -10  14  16  200.28   24.40
 -10  14 -16  108.89   41.00
 -16  10 -14  142.39   43.10
  10  14  16  183.28   24.20
  16  10  14  124.49   23.90
  14 -10  16  143.59   27.30
  14 -10  16  172.68   20.90
 -14  10  16  126.29   40.30
 -16  14  10  133.29   22.60
 -14 -16  10  113.39   26.90
  14  16  10  205.58   24.30
 -16 -14 -10  203.78   35.50
 -12  14  16  102.79   19.70
 -16  14 -12  219.78   49.60
 -16  12  14  123.09   19.30
 -14  12 -16   51.39   31.00
 -12  16 -14   41.20   34.00
 -16 -14  12   96.59   26.80
 -14  16  12  101.99   19.50
  16  14  12  135.19   21.60
  14 -16 -12  112.09   15.80
 -12  14 -16  116.19   41.70
 -14  12  16  112.29   18.60
  12  14  16  126.89   20.20
 -12  16  14  119.19   18.90
 -16  12 -14   89.19   38.90
 -14  16 -12  163.48   48.30
 -16 -14  14   12.50   15.30
 -16  14 -14   -1.50   29.60
 -16  14  14   18.40    9.40
 -14 -16  14   32.90   14.20
 -14 -14  16   21.40   14.10
 -14  14 -16  -12.20   28.70
 -14  14  16   21.30    9.80
 -14  16 -14   15.90   27.40
 -14  16  14   22.00   10.00
  14 -14  16   24.10    7.50
  14  14  16   25.80   11.20
  14  16  14   25.40   10.70
  16 -14  14   16.10    7.00
  16  14  14   22.00   11.90
 -16   0  16 2476.55  271.27
   0 -16 -16 2150.58  257.67
   0  16  16 2791.12  258.97
  16   0  16 2726.93  256.97
 -16  -2  16 1594.44  197.28
  -2 -16 -16 1746.63  166.18
   2 -16 -16 1771.72  164.98
   2 -16  16 1713.73  162.58
   2  16 -16 1337.27  174.78
  16   2  16 1365.56  164.78
 -16   4  16  423.96   62.59
  -4 -16 -16  451.85   47.40
  -4  16 -16  342.97   61.79
  -4  16  16  335.67   43.10
   4 -16  16  323.77   41.30
   4  16 -16  433.26   62.59
  16 -16  -4  413.96   43.80
  16   4  16  396.16   46.40
 -16 -16  -6  144.69   34.00
 -16  -6  16  194.78   38.00
 -16  16  -6  185.98   43.20
 -16  16   6  229.38   29.40
  -6 -16 -16  210.08   29.30
  -6 -16  16  188.58   23.80
   6  16  16  186.68   25.80
  16 -16  -6  155.38   23.40
  16  -6  16  211.18   28.90
  16   6  16  149.49   26.00
 -16 -16   8 2504.45  231.48
 -16  -8  16 1964.60  230.88
 -16  16   8 1920.71  222.88
   8  16  16 2062.29  222.88
  16  -8  16 2402.46  226.58
  16   8  16 2274.47  224.08
 -10  16  16 1502.55  161.88
  16 -16 -10 1417.86  160.68
  16  10  16 1800.42  164.38
 -16 -16  12   68.39   21.10
 -16 -12  16   93.49   24.80
 -16  12 -16   23.90   33.30
 -16  16 -12   85.99   35.90
 -16  16  12   77.99   18.80
 -12  16 -16   90.39   38.90
 -12  16  16   73.39   16.80
  12  16  16   85.99   17.40
  16 -16 -12   68.29   12.60
  16 -12  16   79.29   13.30
  16  12  16  118.19   19.90
 -16  16 -14  294.77   66.19
 -14  16 -16  377.26   69.29
 -14  16  16  481.15   45.90
  16 -14  16  322.07   41.70
  16  14  16  370.56   46.30
 -16  16 -16 2266.17  257.27
 -16  16  16 2637.14  240.18
  16  16  16 2101.69  240.08
 -17  -1  -1 4371.56  392.96
  -1 -17   1 4041.00  390.56
  -1  -1 -17 3648.64  390.66
  -1  -1  17 4574.14  392.96
  -1  17  -1 3482.75  395.56
   1 -17  -1 4113.89  391.76
   1   1  17 3394.76  391.36
   1  17   1 3451.05  394.16
   3   1  17 1295.37  124.59
 -17   1   3 1044.40  120.69
  -3 -17  -1 1160.28  122.29
   1  17   3 1324.57  126.69
  -1   3  17 1083.19  123.59
   1  -3  17 1060.99  123.79
   1  -3  17 1318.07  121.89
  -3  -1  17 1297.27  124.49
  -1 -17   3  977.00  121.89
   1 -17  -3 1328.57  124.69
  -1  17   3 1326.77  127.79
   1 -17   3 1119.39  121.69
   3  -1  17 1135.19  123.79
 -17   1  -3 1228.78  129.69
  17  -1  -3 1192.08  122.19
  -3 -17   1 1100.09  122.09
 -17   3   1 1327.87  124.99
  -3  -1 -17 1308.27  123.79
   1   3  17 1131.99  123.79
 -17   3  -3  261.97   43.30
   3   3  17  282.47   36.10
  17  -3   3  300.57   34.60
   3 -17   3  344.17   34.00
   3  -3  17  300.37   36.70
  -3  -3  17  334.57   36.60
  -3   3  17  332.77   36.20
  -3  17  -3  279.67   45.40
   3 -17  -3  266.77   34.00
  -5  17   1   49.20   18.60
  -5  -1  17   32.40   10.10
  -1   5  17   51.69   12.50
   1 -17  -5   38.10    7.70
   1 -17  -5   75.19   16.00
   1  -5  17   39.80   11.60
   1  -5  17   54.69    7.40
   1  17   5   21.90   10.50
 -17   5  -1   83.79   20.00
   5 -17   1   37.80    9.00
   5  17  -1   21.70   11.70
  -1  17  -5   38.10   20.00
   5   1  17   40.50   11.90
  -5   1  17   46.30   12.30
  -1  -5  17   56.29    8.20
  -1  17   5   27.10   12.10
   1  17  -5   20.60   16.90
   1   5  17   25.60    9.70
   5  -1  17   54.99   14.20
   5  -1  17   41.30    6.40
  -1  -5  17   41.20   12.70
 -17  -5  -1   18.10   24.00
 -17   5   1   58.89   16.90
  -5  -1 -17   42.70   12.50
   5  17   1   54.09   15.30
  17   1   5   41.50   12.40
  17   1   5   40.90    8.20
  -5  17  -1   63.29   20.90
  -3  -5 -17   94.19   15.30
   5   3  17   95.89   16.80
  17  -5  -3   59.89   12.40
 -17   5  -3  127.09   31.70
 -17   3   5   60.49   11.90
   3  -5  17  100.59   17.10
  -5  17   3  112.69   24.40
  -3 -17   5   61.49   12.10
  -3  17  -5   53.89   22.70
  -5  -3  17   81.29   16.20
  -3   5  17   97.19   15.40
  -5   3 -17   95.89   14.80
   3 -17  -5   79.39   14.50
 -17  -5   3   52.79   29.40
   5  17  -3  128.79   24.20
  -5  -3 -17   91.09   16.90
  -5   3  17   63.39   14.60
 -17   5   3   65.49   20.20
   5 -17  -3   96.59   12.10
 -17  -5  -3   57.29   29.20
   3   5  17  101.59   17.00
  17   3   5   79.99   14.80
  -5 -17   3   92.49   13.50
  -5  17  -3  143.89   31.60
   5  -3  17   77.09   15.10
   5  -3  17   88.69   11.50
  -3  -5  17   87.29   16.30
   3  17  -5  128.69   26.30
 -17   3  -5   51.19   23.00
  -5  -5  17 1475.45  146.89
  -5  -5  17 1605.74  146.09
  -5   5 -17 1503.75  145.19
 -17  -5   5 1254.17  159.48
 -17   5  -5 1633.54  158.08
  -5   5  17 1280.97  145.49
   5  -5  17 1354.46  144.29
   5  17   5 1237.28  145.49
  17   5   5 1587.64  145.49
   5  -5  17 1462.55  147.39
   5 -17  -5 1247.28  143.99
   7   1  17 1720.43  166.08
  17  -1   7 1675.53  165.88
  17  -1   7 1750.02  164.28
   1  17   7 1323.47  164.38
   1  -7  17 1528.35  165.78
 -17   7  -1 1605.34  170.68
 -17   7   1 1502.95  167.78
  -1  -7  17 1536.55  163.28
   1  17  -7 1523.95  172.78
  -7  17  -1 1554.24  172.08
   7  -1  17 1767.92  162.58
  17   1   7 1807.32  165.98
  -7   1  17 1637.34  165.18
  -1  -7  17 1384.66  165.18
   7  -1  17 1797.92  166.58
  -3  -7 -17  597.14   76.89
  -7  17   3  606.44   79.99
  17  -7  -3  847.42   76.69
  -7  -3  17  706.33   76.69
   7  17  -3  695.53   79.09
   3  -7  17  686.43   77.49
  -7 -17  -3  626.44   75.59
   7   3  17  782.52   77.79
   3 -17  -7  668.53   75.79
   3 -17  -7  713.23   74.09
   3  -7  17  771.32   74.39
  -7  -3 -17  841.32   79.29
 -17  -3   7  803.02   94.69
 -17  -7  -3  646.74   91.29
  -7  17  -3  738.33   85.49
   7  -3  17  716.73   74.09
  -3  -7  17  805.42   77.79
  17   3   7  729.13   76.39
   7  17   3  784.42   76.29
   7  -3  17  653.43   77.39
   3 -17   7  731.33   74.69
   3   7  17  624.84   76.29
  -3  -7  17  681.33   74.79
  -7   3  17  777.82   76.79
  -5  -7 -17    3.80    9.10
  -7  -5  17    2.40    7.00
   5  17   7    1.50    6.80
 -17   5   7   -1.50    5.00
 -17  -7   5   -5.00   19.70
  -7  -5  17   -0.30    6.40
   5  -7  17    4.80    4.10
  17   7   5    4.20    5.80
   7  17  -5    6.00   12.30
  -7   5 -17    2.70    5.80
   5 -17  -7    3.50    3.50
  17  -5   7    0.50    5.00
 -17   7  -5   -1.90   18.10
  -5  17  -7   -3.30   18.70
 -17  -5  -7  -12.70   18.10
  -5   7  17    1.40    6.30
   7   5  17    1.60    7.70
   7 -17   5    4.40    5.40
  -7 -17  -5    0.20    3.90
   5  -7  17    3.00    6.90
  17  -7  -5    9.70    5.50
  -7  17   5   10.90   11.80
  -5 -17   7    2.20    5.30
   5 -17  -7    4.90    5.60
  -7 -17   5   10.60    7.30
 -17   7   5    4.30    8.20
   7  -5  17    3.80    3.60
   5   7  17    2.80    7.50
   7 -17  -5    3.50    3.50
   7  17   5    4.00    6.60
  -7  -5 -17    3.20    9.00
  17  -5  -7    2.40    3.90
 -17   5  -7    7.60   19.00
  17  -7   5    0.90    5.10
   7  -5  17   -2.10    7.90
  -7   5  17    2.00    6.40
  -5 -17  -7    3.40    3.80
  -5  -7  17    4.40    7.30
  -5  -7  17    6.80    5.30
  17   5   7   -1.30    5.70
   5  17  -7    2.30   14.10
  -5  17   7    1.70    7.20
  -7  17  -5    5.00   19.10
 -17  -7  -7 1708.63  204.88
   7  17   7 2022.80  190.98
  17   7   7 1749.22  190.38
 -17   7  -7 1954.30  203.78
   7 -17   7 1654.43  189.78
  -7  -7  17 2128.39  192.08
   1 -17  -9 2892.51  255.37
   1 -17  -9 2863.81  258.27
  -1 -17   9 2612.74  255.57
   1  -9  17 2382.66  257.67
   9   1  17 2776.22  254.27
 -17   9  -1 2341.37  261.87
   9  17  -1 2468.85  255.67
  17  -1   9 2136.89  256.57
  -9   1 -17 2613.74  257.87
  17  -9   1 2752.12  256.67
   9  -1  17 2547.84  257.67
 -17  -9  -1 2505.15  271.17
  -9   1  17 2492.95  256.57
   1  17  -9 2488.15  264.87
   9  17   1 2222.18  255.07
   1   9  17 2351.66  256.37
  -9  -1 -17 2305.27  257.67
  -1  -9  17 2696.43  255.17
   9  17  -3 1932.41  179.08
   9   3  17 1797.12  179.28
 -17   3   9 1941.91  197.28
  -9   3 -17 1841.32  178.98
 -17  -9   3 1506.55  189.58
   3  -9  17 1822.92  180.28
  -3   9  17 1656.53  177.68
  17   3   9 1579.44  177.88
  -9 -17   3 1617.04  179.38
   9  -3  17 1847.32  176.18
   3 -17   9 1499.85  175.98
  -3  -9  17 1588.64  178.78
  -3  -9  17 2003.60  177.28
  17  -5   9  545.25   54.49
  17  -9  -5  479.65   54.19
   9   5  17  549.05   56.49
 -17   5   9  503.95   53.49
   5  -9  17  551.44   58.09
  -5   9  17  409.46   53.69
 -17   9  -5  530.65   70.29
  17   9   5  516.45   54.09
  -9   5 -17  415.86   53.59
  -9  -5  17  429.46   54.29
  -9   5  17  520.05   63.19
  -5 -17  -9  457.95   52.09
   5  17  -9  468.15   63.19
  17   5   9  455.35   54.59
 -17  -5   9  542.05   71.39
  -5  -9  17  572.44   56.79
  -5  -9  17  541.35   54.59
   9  17   5  445.16   53.79
  -9   5  17  552.34   55.19
   9  -5  17  555.24   57.09
  -7   9  17 3018.40  340.07
  -9  -7  17 3648.14  341.67
  17   9   7 3802.52  340.67
   7  -9  17 2796.02  341.67
 -17   7   9 3571.04  339.97
  -9 -17  -7 3691.23  340.77
  -9  17  -7 3193.78  351.66
  17   7   9 3780.12  341.27
  -7  17   9 2818.92  339.87
  -7  -9  17 3820.72  341.77
   9 -17  -7 3163.98  338.87
   9  -7  17 2931.21  341.87
   9  17   7 3379.36  340.27
  -7  -9  17 3560.34  341.77
   9 -17  -9 3620.44  420.26
   9  -9  17 4664.43  425.26
  -9 -17   9 4598.84  424.26
   9   9  17 4050.79  422.86
   9  17  -9 3962.00  425.96
 -17   9  -9 4507.15  436.96
  -9   9  17 3976.40  421.86
  11  17  -1  666.03   70.99
  17  -1  11  696.43   73.89
  -1  11  17  787.22   74.09
  -1  17 -11  663.53   84.49
   1 -17 -11  773.72   74.29
   1 -11  17  638.74   74.09
   1 -11  17  663.93   70.09
  17  -1  11  602.14   70.79
  11 -17  -1  666.03   70.99
  -1 -11  17  655.13   73.99
 -11   1  17  740.13   73.59
  -1 -17 -11  598.74   73.59
 -17 -11  -1  656.93   86.59
   1  17 -11  693.53   83.99
  17   1  11  622.94   72.69
  17  -3  11   17.00    9.70
   3 -17 -11   11.30    7.90
  -3 -11 -17   20.70   10.60
  -3  17 -11   -0.50   20.40
   3  17  11   27.30    9.40
 -11  -3  17   20.10   14.70
 -11   3 -17   20.00    9.90
 -11  -3  17   17.70    9.00
  11  17  -3    2.80    5.70
 -17   3  11    4.40   21.40
 -11 -17  -3   10.90   10.20
  -3  11  17   15.00    9.10
  11   3  17   13.60    9.10
   3 -11  17   19.00    5.60
 -17  11  -3   34.40   19.80
   3 -11  17   14.30   10.30
  11  -3  17   19.70    5.80
   3  17 -11   10.10   17.50
  -3  17  11   13.80    8.90
 -11   3  17   13.00    8.20
 -11   3  17   11.30   14.70
 -11 -17   3   18.30   12.00
 -11  17  -3   24.70   20.50
  -3 -11  17   11.50    9.20
 -11  -3 -17    4.40    9.70
   3 -11 -17    2.80    8.20
 -17  11   3    3.20   10.60
  11  17   3   11.00    6.70
 -17 -11  -3    4.90   19.40
 -17  -3  11   11.80   21.40
   3  11  17   10.30    6.80
  11 -17  -3   24.00    7.30
  17   3  11    9.10    4.20
  17   3  11    4.50    7.70
  -3 -17 -11   21.30   11.50
  -3 -11  17   13.70    6.00
  11   5  17   98.19   21.80
   5  17  11  139.29   21.20
 -17   5  11  150.58   20.00
  -5  17 -11  120.19   35.20
   5 -17 -11  156.58   20.40
  11 -17   5  156.88   19.50
  -5  11  17  131.19   20.90
 -11  -5  17  162.88   22.60
 -11  -5  17  141.79   28.40
   5 -11  17  159.58   25.10
 -11  17  -5  181.18   40.60
 -17  11   5  177.38   24.00
 -17 -11  -5  147.49   37.00
  17   5  11  156.68   21.80
   5  17 -11  193.68   34.90
 -11 -17   5  126.19   24.20
  -5 -11  17  147.49   23.20
  11  -5  17  133.89   17.60
  11  -5  17  110.09   23.20
   7 -11  17  587.54   60.49
 -11  -7  17  482.05   57.29
 -11  -7  17  415.26   60.99
  17  -7  11  450.95   56.09
 -17   7  11  477.05   55.69
 -11   7 -17  570.94   56.29
 -17  11  -7  637.64   76.19
   7 -17 -11  503.55   54.29
  17  11   7  585.94   57.59
 -11  17   7  536.55   59.29
  11   7  17  491.85   57.49
  17 -11  -7  472.95   55.49
 -17 -11  -7  590.44   73.19
  -7  17  11  568.64   57.79
 -11  -7 -17  424.76   57.59
  17   7  11  478.35   57.09
 -11   7  17  457.65   70.69
  11  -7  17  585.14   55.09
   7  17 -11  492.65   66.49
   9 -11  17  878.91   88.59
 -17  -9 -11  747.03   99.69
  -9 -11 -17  822.72   87.79
  11 -17   9  663.73   82.99
  11   9  17  696.43   85.29
 -11  17   9  785.02   84.99
   9  17 -11  890.81   94.19
  17 -11   9  854.81   84.39
 -17 -11  -9  864.11  100.29
  11  -9  17  914.11   88.59
   9  11  17  717.13   85.09
 -11  17 -11  153.28   44.80
 -11 -11  17  125.79   24.20
  17  11  11  142.19   23.20
  11  11  17  167.28   23.50
  11 -11  17  144.39   26.50
 -17 -11 -11  180.98   38.60
 -11  17  11  129.69   21.80
  11 -17 -11  149.59   19.10
 -13  -1  17  143.49   32.00
  -1  13  17  146.09   21.80
   1  17  13  122.69   21.40
 -13  17   1  109.39   29.60
  17  -1  13  192.08   25.30
 -17  13  -1  168.48   32.20
   1 -13  17  151.38   24.60
  13   1  17  158.08   23.20
 -13   1 -17  147.99   25.30
 -17   1  13  121.99   38.90
  13  -1  17  147.79   22.90
 -13   1  17  133.89   21.60
 -13   1  17  114.79   31.80
   1  17 -13  161.18   38.20
 -13 -17  -3   16.70   13.50
  17  -3  13   28.90   11.90
 -17 -13   3   21.60   19.90
  -3 -17  13   37.30    8.90
  -3  17 -13   15.40   24.10
   3 -17 -13   42.10   12.40
 -17   3  13    1.40   20.80
   3  17  13   13.30    8.60
  17  -3  13   35.20    8.50
  13   3  17   25.20   11.10
  -3  13  17   14.10    9.10
 -17  13  -3   20.60   19.20
   3 -13  17   24.90   12.70
 -13  -3  17   28.90   10.20
 -13  -3  17   -1.50   12.80
 -13  17   3    4.60   13.90
  17 -13  -3   11.40    7.40
  -3 -17 -13   11.10   11.40
  13  -3  17   35.20   12.00
  -3 -13  17   29.70    9.00
   3  17 -13   20.60   19.90
  13  17   3   36.00    9.20
  17   3  13   27.60   10.20
 -13   3  17   19.50   19.50
  13  -3  17   28.80    7.30
   3  13  17   17.80    9.20
 -13  17  -3    8.40   18.60
   3 -13 -17   30.50   10.30
 -17  -3  13   -1.00   20.20
  -3  17  13   20.80    9.60
 -17 -13  -3   11.00   19.80
  17   3  13   23.50    6.20
  13 -17  -3   12.40    7.60
 -17  13   3   21.00   13.10
   5 -13  17  588.14   63.69
 -17   5  13  563.74   60.49
  13   5  17  605.14   62.09
   5 -13  17  510.15   58.49
  13  17   5  464.45   59.39
  17   5  13  606.84   62.19
  13  -5  17  609.04   63.89
  -5  17  13  585.24   61.19
   5  17 -13  437.96   70.29
  -7 -17  13  122.89   16.60
 -13  17   7   79.59   19.40
   7  13 -17   46.60   26.40
 -17  -7 -13  118.99   35.80
  -7  17 -13   71.89   32.50
  -7  13  17  116.69   17.80
 -13  -7  17  109.49   26.80
  17 -13  -7   91.09   15.20
 -17 -13   7   72.99   27.40
 -13 -17   7  114.99   23.00
  -7  17  13  113.39   18.30
   7  13  17   68.39   16.60
  17   7  13  121.49   19.80
 -17  -7  13   78.59   28.80
 -17 -13  -7  151.88   33.80
  13  -7  17   84.59   20.90
  13  -7  17   94.69   13.70
 -17  13   7   80.99   17.50
 -13   7  17  113.09   17.50
 -13   7  17  107.59   33.60
  13 -17  -7   91.19   14.40
  -7 -13  17   69.69   14.90
   7  17 -13   65.79   25.90
  -9  13  17  413.06   50.59
  17 -13  -9  357.56   50.39
  -9  17 -13  448.06   70.99
 -17 -13   9  465.35   61.79
 -17  -9 -13  493.65   67.79
  13   9  17  501.55   52.99
 -13 -17  -9  423.86   53.39
 -17  13  -9  558.94   72.99
 -13  17  -9  438.06   69.19
  13  -9  17  402.76   53.69
  13  -9  17  448.76   49.40
  13  17   9  510.35   51.39
  -9 -13  17  502.05   52.29
  17   9  13  456.75   52.09
 -17 -13  -9  488.05   64.99
 -13  17  11   11.70    8.80
  17  13  11   16.60   11.30
 -11 -13 -17    7.60   11.30
 -17  13 -11   22.20   28.80
  13  11  17    5.20    8.90
  11  17  13    7.00    8.90
 -11  17 -13    1.80   25.30
 -17 -13  11   12.80   16.60
  11 -13  17   11.60    6.20
 -13 -11  17    6.90   12.70
 -11  13  17   10.60    8.00
  13 -17  11   15.20    6.70
  17 -13 -11   20.20    6.90
  17 -11  13   20.10    7.30
 -17  11 -13    8.00   28.00
  13  17  11   25.30   10.50
  13 -17 -11   26.40    8.10
  17 -13  11    7.80    6.20
  11 -17  13   28.00    8.50
  17  11  13   14.70   10.20
 -17 -13 -11    3.00   16.50
 -13  17 -11   35.60   28.30
 -11  17  13   15.50    9.10
  11  13  17    9.80    9.30
 -13  11  17   33.60   10.60
 -17  13  11   13.60    9.00
 -11 -13  17   20.50   11.00
 -13  13 -17   17.50   31.80
  17 -13  13   50.79   10.50
  17  13  13   61.79   17.90
 -17  13 -13   78.29   36.20
 -17  13  13   26.60   11.10
 -13  17  13   64.49   15.00
  13 -17  13   38.90    9.90
 -13 -13  17   26.00   14.40
 -13  17 -13   97.59   36.10
  13  13  17   78.39   17.60
 -15   1 -17  742.03   90.19
 -15  17   1  766.32   94.29
  17  -1  15  708.53   86.19
  15   1  17  831.22   89.29
  -1  17 -15 1042.10  105.89
  15   1  17  871.21   85.89
  17  -1  15  913.01   90.69
 -15  -1  17  681.73   98.09
  17   1  15  895.21   86.29
  15 -17  -1  777.22   86.79
 -15 -17   1  771.42   94.69
 -17  15   1  811.12   94.39
   1  17 -15  732.93  100.19
  17   1  15  918.11   90.69
  -1 -17 -15  965.40   89.69
  15 -17   3  358.06   39.40
  -3 -17  15  299.37   38.70
  17  -3  15  328.37   39.10
   3 -17 -15  401.96   41.30
  15   3  17  346.07   42.30
  -3  15  17  310.27   40.70
 -15  17   3  396.46   48.20
   3 -15 -17  409.96   41.50
  -3 -17 -15  275.57   41.80
  15  -3  17  311.47   42.80
  -3  17  15  373.36   42.00
  -3 -15  17  371.96   39.40
  -5 -15 -17   -0.20    9.70
   5  15 -17   11.80   23.90
 -17  -5 -15   -1.30   20.50
  17  -5  15    6.30   10.30
 -15  17   5   12.80   12.50
  17  -5  15    1.70    5.30
  -5  17 -15    6.50   23.60
   5  17  15    6.20    8.00
  -5  15  17    5.80    7.60
   5 -17 -15    7.80    7.80
   5 -15  17    7.60    5.30
  15   5  17    3.50    8.60
  17 -15  -5    7.00    6.00
  15 -17   5    4.00    5.70
 -17 -15   5    0.00   16.90
 -17   5  15   23.40   24.70
 -17  15  -5   13.50   20.80
   5 -17  15   -1.60    4.20
   5  15  17    7.20    7.60
 -15   5  17   10.40   27.60
 -17  15   5    3.60   11.30
 -17 -15  -5   -0.60   16.20
  17   5  15    0.00   10.40
  15  -5  17    9.70   10.70
  -5 -15  17    4.70    5.90
  -5  15 -17   -4.20   24.80
  -5 -17 -15    0.90    9.70
 -17  -5  15   11.50   19.80
  15 -17  -5    6.80    6.40
 -15  17  -5    5.20   21.20
   5  17 -15   -6.50   20.50
 -15 -17   5   12.00   15.00
  15  -5  17    7.60    5.60
  -5  17  15    2.90    7.90
  15   7  17  376.66   46.30
  -7 -15 -17  397.26   47.50
  17  -7  15  388.36   48.80
   7  17  15  423.46   46.40
   7  15 -17  285.77   61.09
 -17   7  15  304.17   62.19
 -17 -15  -7  433.86   68.79
 -15  17  -7  421.26   63.29
  -7  15 -17  288.57   64.79
  -7  17  15  375.46   45.10
 -17  15   7  443.76   47.60
  15 -17  -7  475.55   45.50
  -9  17 -15 1000.60  125.79
   9  17  15  905.01  106.89
 -17  15  -9 1203.48  125.79
  15  -9  17 1032.90  110.59
  17   9  15 1108.39  109.09
  -9 -15  17 1055.69  107.59
   9  15  17  882.11  106.99
 -15   9  17 1022.50  107.79
 -17  -9  15 1048.10  117.79
 -11  15  17  119.19   21.10
 -17  11  15  165.28   23.60
  11 -15  17  159.38   19.50
 -17  15 -11  201.38   50.19
 -11  17 -15  140.09   42.80
 -15 -11  17  119.19   27.70
  11  17  15  167.18   22.60
 -11 -17  15  134.79   22.20
  17 -15 -11  162.28   19.90
  15  11  17  121.89   23.20
 -17  15  11  134.79   23.30
 -15  17 -11  129.09   40.30
 -11  15 -17  193.38   54.49
  17  11  15  147.19   24.10
  11  15  17  112.89   22.70
  15  17  11  140.59   22.50
 -11  17  15  168.98   22.60
 -13  17 -15    5.90   29.00
 -13  15  17   -1.30    7.80
  13 -15  17    3.30    4.70
 -15 -13  17   -0.70   12.50
 -13 -17  15    5.30    9.30
  17 -15 -13    5.40    5.40
 -17  15 -13   -6.90   24.30
 -15  17  13   -0.80    8.60
  17  15  13   -3.10    9.90
 -17  13  15    1.00    8.70
 -17  13  15   -9.90   26.60
  15  13  17    2.30    9.10
 -15  13 -17   14.10   31.90
  13  17  15    2.10    8.40
 -17  15  13    1.80    8.30
  17  13  15    2.20   10.20
 -15  13  17    5.40    9.20
  15 -17 -13    1.70    4.80
 -13  15 -17    4.30   27.50
 -13  17  15    1.30    7.90
  13  15  17    6.60    9.80
  15 -13  17    9.30    6.10
 -15  17 -13   -3.70   25.90
  15  17  13    3.00    9.90
 -17  13 -15   -5.60   28.80
 -17  15 -15  703.93   88.79
 -17  15  15  434.36   61.19
  15 -17  15  547.95   59.29
  15  15  17  626.24   64.29
 -17 -17   1 2919.01  275.47
 -17  -1  17 2452.15  278.47
  -1 -17  17 2577.04  263.57
  -1  17 -17 2804.72  280.57
  -1  17  17 2407.56  265.87
   1  17 -17 2538.75  278.27
   1  17  17 2296.67  265.47
  17   1  17 2590.44  267.07
  17   1  17 2949.21  264.17
 -17  17  -3  820.52  111.29
  17 -17   3 1089.89  103.19
  17  -3  17  947.91  105.59
  17   3  17 1026.20  105.29
 -17 -17  -5   69.49   23.90
 -17 -17   5   27.80   18.40
 -17   5  17   57.89   38.80
 -17  17  -5   34.40   24.80
 -17  17   5   27.10   13.80
  -5 -17 -17   38.90   13.60
  -5 -17  17   34.20    9.60
  -5  17 -17   14.10   25.60
  -5  17  17   22.30    9.90
   5  17 -17   30.30   25.30
   5  17  17   25.20   10.80
  17 -17   5   15.60    7.80
  17  -5  17   50.29   14.70
  17   5  17   24.20   11.60
 -17  -7  17  893.01  102.29
 -17  17   7  882.61   93.39
  -7  17  17  831.02   91.39
   7  17 -17  869.91  111.19
   7  17  17  867.01   91.89
  17 -17  -7  826.92   90.89
  17  -7  17  994.40   95.59
  17  -7  17  751.82   90.19
 -17   9  17 1956.30  229.98
 -17  17   9 2175.68  207.88
  -9  17  17 2063.89  207.58
  17 -17  -9 2001.60  207.08
  17  -9  17 1814.92  206.48
  17   9  17 2131.69  209.48
 -17 -17  11  614.34   77.19
 -17  17 -11  624.44   90.29
 -17  17  11  694.43   72.99
 -11  17  17  714.43   72.59
  17 -11  17  698.83   71.29
  17  11  17  583.34   73.19
 -17  13 -17  205.08   54.59
 -17  13  17  125.59   24.00
 -17  17 -13  205.08   54.39
 -13  17  17  130.69   21.30
  17 -13  17  119.29   18.30
 -17 -15  17  634.14   77.39
 -15  17 -17  581.94   94.39
 -15  17  17  738.93   74.19
  17  17  15  688.83   76.59
 -17  17 -17 1164.38  157.48
  17  17  17 1452.65  141.99
 -18   0   0 5489.45  509.85
   0   0  18 4597.94  507.05
  18   0   0 5048.79  505.65
  -2 -18   0 1486.05  141.19
   0  -2  18 1453.35  142.99
   0   2  18 1161.18  141.99
   0  18  -2 1310.37  147.49
   0  18   2 1407.06  145.99
 -18   2   0 1470.25  143.79
  -2   0  18 1357.36  142.59
   2  -2  18  782.12   90.49
   2  -2  18  766.22   87.09
   2   2  18  917.31   90.99
   2  18  -2  852.01   95.39
  -2   2  18  893.31   90.69
   2 -18   2  964.10   88.49
  -2  -2  18  821.52   90.19
  -2  -2  18  836.92   87.49
  18  -4   0   49.30   10.10
   4   0  18   53.79   12.10
  18   0   4   57.09    9.60
 -18   0  -4   91.09   26.30
   4  18   0   42.50   14.40
   0 -18  -4   28.90   12.40
   0  18  -4   70.19   21.10
   0  -4 -18   35.00   10.30
 -18  -4   0   42.40   27.00
  -4   0 -18   56.09   12.60
  -4   0  18   51.59   13.10
   0   4  18   58.39   14.20
 -18   4  -2   23.10   14.30
  -2  -4 -18   13.70    8.40
   2 -18  -4   17.10    5.50
   2 -18  -4   13.40    8.30
   4  18  -2    6.20   11.60
  -4   2 -18    4.80    5.90
  -2   4  18   22.50    9.20
   2  18   4   14.50    9.90
  18  -2   4    5.90    5.00
   4   2  18    8.90    8.70
   4 -18   2   17.30    6.20
  -2  18  -4   -1.70   16.20
  -4  18   2   13.30   14.50
   2  -4  18    8.30    8.30
  -4  -2  18    6.20    7.50
  -4  -2  18   15.10    5.00
   2  -4  18   12.20    4.40
  -4 -18  -2    6.40    5.00
 -18  -4   2   17.90   24.80
  -2 -18  -4   16.50    5.00
 -18   4   2   12.20    8.90
   4  18   2   11.50    9.10
  18  -2  -4   15.40    5.50
 -18  -4  -2   11.00   23.00
  -2  -4  18   12.30    8.00
  -2  -4  18    7.40    4.00
  -2  18   4   17.30   11.60
 -18  -2   4  -16.30   19.10
 -18   2  -4   20.30   15.50
  -4   2  18   10.00    7.50
  -4 -18   2    2.90    4.70
  -4  18  -2   -2.00   14.60
  18   2   4    7.50    4.00
   2   4  18   13.30    8.60
   4 -18  -2    9.10    5.20
   4 -18  -2    9.10    5.10
   4  -2  18    9.00    9.00
   4  -2  18   16.30    4.80
   2  18  -4    4.20   13.30
  -4  -2 -18   10.70    7.80
  -4  -4  18 1426.66  134.29
 -18   4   4 1315.17  131.79
   4 -18  -4 1380.46  131.39
   4 -18   4 1404.76  132.09
   4  -4  18 1207.58  133.89
   4  -4  18 1220.48  130.69
   4   4  18 1059.29  132.69
   4  18  -4 1254.37  137.79
  18  -4  -4 1448.66  132.29
  -4   4  18 1129.29  132.49
   0   6  18  712.33   73.09
  18   0   6  699.93   73.69
   6   0  18  628.54   73.29
   0 -18  -6  602.44   73.79
  -6  18   0  686.33   80.29
   0  -6  18  762.32   70.39
  -6   0  18  614.74   72.59
   6   0  18  627.24   69.29
 -18   6   0  791.22   78.59
  18  -6  -2  199.58   23.70
   2  -6  18  147.99   20.80
  -2  18  -6  148.79   36.70
   2  -6  18  207.08   26.40
 -18  -6   2  181.88   44.60
 -18   6  -2  228.88   35.30
   2  18   6  202.98   25.10
  -6  -2  18  232.48   26.20
  -6   2 -18  152.08   23.60
   6   2  18  187.08   25.10
   2 -18  -6  212.38   22.00
  -2 -18   6  204.58   23.10
   6  18  -2  239.58   29.10
  -6  18   2  189.08   33.50
   2 -18  -6  224.28   25.80
   6  -2  18  133.99   25.50
  -2 -18  -6  156.78   20.80
   6  18   2  186.08   24.60
  18   2   6  200.38   25.00
 -18   2  -6  181.78   39.50
  -6  18  -2  172.88   35.40
  -2  18   6  187.28   25.80
  -6   2  18  174.58   22.70
  -2  -6  18  198.58   25.70
  -6  -2 -18  210.68   26.40
   2   6  18  159.38   25.00
  -6   2  18  151.38   24.20
  18   2   6  176.28   21.90
  -6  -4  18  373.26   41.50
  -4 -18   6  343.87   38.60
   4 -18  -6  302.17   38.20
   6   4  18  380.76   41.50
   6  18  -4  421.56   46.90
  -6  -4  18  356.96   39.50
 -18   6  -4  398.96   52.49
  -6  18   4  333.07   45.30
  -6 -18  -4  406.36   38.90
   4  -6  18  327.37   40.60
   4  -6  18  402.96   38.20
  -6  -4 -18  302.87   40.90
  -4  18   6  358.26   42.00
 -18   6   4  307.77   40.00
  -6   4  18  281.97   39.10
   4   6  18  312.27   40.70
  -6  18  -4  385.96   53.39
 -18   4  -6  294.07   50.79
   6  18   4  361.06   39.90
   6  -4  18  361.16   41.80
   6  -4  18  345.67   37.40
  -4  -6  18  288.77   39.90
 -18  -6  -6   33.60   25.90
   6  -6  18   36.90   12.70
   6   6  18   24.20   10.80
  -6  18   6   42.80   14.40
   6  18  -6   53.79   17.90
  -6  -6  18   38.40   10.90
 -18   6  -6   38.80   23.40
  18  -6   6   34.10   10.20
 -18   6   6   47.40   10.70
  -6 -18  -6   26.50    8.90
   6  -6  18   49.90    8.20
  -6  -6  18   40.40   10.00
  18   6   6   58.09   12.60
  -6  18  -6   41.00   22.70
  18   0   8 2228.38  211.78
  -8   0  18 2087.69  210.88
  -8   0  18 2166.28  213.48
  -8  18   0 2234.58  218.08
   0  -8  18 2242.68  212.38
   8  18   0 1828.72  209.58
   8   0  18 1972.40  211.28
  -8   0 -18 1787.32  210.68
 -18   8  -2 1485.75  147.09
  -2 -18   8 1199.08  137.09
  -2   8  18 1144.99  137.79
   2  -8  18 1409.06  140.39
  -8  18   2 1195.98  143.39
  -8  -2  18 1130.29  137.79
   8  -2  18 1324.97  139.39
  -8  18  -2 1260.87  146.29
   2  -8 -18 1530.45  138.79
  18   2   8 1452.65  139.49
   8  -2  18 1507.55  136.09
  -2  -8  18 1450.65  139.99
  -8   2  18 1357.36  141.69
 -18   8   2 1148.09  140.39
   2   8  18 1145.89  137.99
   2  18  -8 1551.64  148.39
  -2  18   8 1229.18  138.19
   8  18   2 1404.26  137.99
  -8  -2 -18 1569.84  140.79
   8  18  -4   72.09   20.30
 -18   8  -4  128.69   34.50
   4  -8  18  132.39   21.00
   4  -8  18   89.99   12.60
   4  18   8  103.79   16.90
  -4   8  18  101.69   16.30
   8   4  18   89.29   16.20
  18  -4   8  107.69   14.90
  18   4   8  116.69   18.30
  -4  -8  18   85.19   13.30
   4  18  -8  149.39   29.20
 -18   4  -8   45.90   26.60
  -4  -8  18  107.79   18.40
  -8   4  18  106.49   16.50
   4   8  18   70.09   17.60
 -18  -8  -4   56.49   30.20
   8  18   4   64.99   15.20
  -8 -18   4   69.29   15.10
   8 -18  -4   75.69   12.60
   8   6  18  861.81   97.99
   6  -8  18 1009.90   97.39
   6  18   8  823.32   93.49
 -18   8  -6  856.01  106.59
  -6   8  18  964.80   94.19
  18   6   8 1006.40   94.69
   6  18  -8  961.20  102.29
  -6  -8  18  953.60   95.79
  -8   6  18  836.52   93.69
 -18   6  -8  711.53  105.49
 -18  -8  -6  944.81  111.99
   6 -18   8  921.21   92.99
   6   8  18  759.12   94.19
  -8  18  -6  853.51  105.79
  18  -8  -8 2206.08  247.38
   8  18   8 2311.17  248.38
   8 -18  -8 2492.75  247.08
  -8   8  18 2421.46  248.48
   8  -8  18 2829.32  252.17
   0 -10  18 2196.18  204.38
   0  10  18 2210.38  206.78
  18 -10   0 2212.78  206.68
 -10  18   0 1795.82  212.18
   0  18 -10 2255.37  217.18
   0  18  10 2057.89  206.98
  10   0  18 1880.51  208.08
 -10   0 -18 1905.21  207.48
  18   0  10 1797.52  206.98
 -10   0  18 1779.92  206.48
  18   0  10 2134.09  205.08
  -2  10  18  396.86   47.80
  10   2  18  393.36   50.39
 -10  -2  18  403.56   53.69
   2 -10  18  453.35   51.29
   2 -18 -10  444.46   45.60
 -18   2  10  542.05   72.29
  -2  18 -10  455.35   62.19
  10  -2  18  493.85   46.70
   2  18 -10  351.56   58.89
  -2 -10  18  404.66   50.49
  -2 -18 -10  478.85   51.79
 -10  18  -2  530.85   61.69
  10  -2  18  451.65   49.90
  18   2  10  416.46   49.70
  -2  18  10  348.67   48.80
  18  -4  10   -0.60    9.50
  18  -4  10    1.60    4.90
  10   4  18    5.20    8.80
  -4  10  18   -0.10    6.90
 -10 -18  -4    2.40    6.50
  10 -18   4    0.10    5.10
  10  18  -4   -2.60    8.70
  18 -10  -4    3.30    6.40
   4 -10  18   -0.60    3.80
 -18  10  -4    3.90   16.80
  -4 -10 -18   -3.60    8.70
 -18   4  10   -0.10   23.20
 -10  -4  18    9.30    8.60
 -10  -4  18   -0.10   10.00
 -10  18   4    3.00   12.60
  -4 -18  10   -0.60    5.00
  -4  18 -10    2.20   19.40
   4 -18 -10   -0.90    3.30
   4 -18 -10    0.70    5.90
   4 -10  18    1.40    9.60
 -10   4  18    4.00   19.00
 -10  18  -4   -4.70   18.70
 -10   4  18    1.60    6.40
 -18  10   4   -0.60    9.10
  -4 -10  18   -2.20    3.90
  -4 -18 -10   -0.50    8.80
  10  18   4    0.70    6.10
   4 -18  10   -0.60    4.20
   4  18 -10    4.20   17.30
   4  10  18    3.60    7.70
  10  -4  18    0.20    8.90
  10  -4  18   -1.00    3.80
 -10  -4 -18    6.60   10.10
  18   4  10    1.30    6.90
  -4 -10  18   -1.90    8.10
  -4  18  10   -6.10    7.20
   6 -10  18  329.47   38.50
 -18   6  10  277.97   33.70
 -10  -6  18  318.97   35.60
 -10  -6  18  357.26   40.00
 -10   6 -18  314.57   38.50
  10   6  18  292.77   35.90
 -10  18   6  219.68   37.00
 -18  10  -6  202.48   48.00
 -18  -6 -10  214.58   49.50
  -6 -10  18  258.17   35.20
 -18   6 -10  220.68   53.29
 -10   6  18  307.97   34.40
 -10  -6 -18  309.47   38.20
  18   6  10  281.67   35.20
  10  -6  18  288.47   37.30
 -18  -6  10  207.78   47.70
 -10 -18  -8 1800.52  181.88
  18  10   8 1886.81  182.78
 -18   8  10 1631.14  181.48
  10  18  -8 1685.43  185.18
  -8  10  18 1579.34  181.68
  10   8  18 1706.33  183.18
   8 -10  18 1505.75  180.18
   8 -10  18 1622.64  184.28
 -10  -8  18 1969.50  184.08
  -8  18 -10 2035.30  198.18
 -18 -10   8 1890.91  195.48
  10  -8  18 1601.34  183.88
   8  10  18 2043.90  184.08
  18   8  10 1913.81  183.38
 -10  18  -8 1932.11  196.48
  10  10  18  954.20  107.09
 -18  10 -10  877.41  121.19
  10 -10  18 1138.99  110.19
 -10 -10 -18  987.60  108.89
 -10 -10  18  980.80  108.49
 -18 -10 -10 1152.88  124.39
  18  10  10 1012.80  108.29
 -12   0  18  222.38   29.30
   0  12  18  223.88   27.20
  12 -18   0  231.88   26.10
   0  18  12  189.38   27.90
   0 -12 -18  166.08   27.50
   0 -12  18  194.38   30.60
   0 -12  18  210.48   24.50
  18   0  12  267.37   31.30
  12   0  18  223.28   25.20
  12   0  18  209.08   29.30
   2  18  12    1.30    7.90
  -2 -12 -18    3.20    8.50
 -12  -2  18   11.90    9.40
 -12  18   2   17.10   16.30
 -18 -12   2    2.30   19.80
 -12  -2  18    9.90   18.10
  12   2  18    9.40    8.60
  12  18  -2    0.10    6.80
  -2  18 -12   15.30   20.20
  18  -2  12    9.20    5.70
  -2 -18  12   -1.00    4.70
  18  -2  12    7.00    9.60
   2 -12  18    6.40    9.40
   2 -12  18    9.80    4.60
  -2  12  18   17.10    7.50
 -18  12  -2    8.80   17.50
 -18   2  12   15.70   23.40
 -12   2 -18    5.60    8.70
   2 -18 -12    3.10    7.80
  18   2  12    8.60    8.90
  -2 -12  18    5.30    9.00
  -2 -12  18    5.70    5.00
   2 -12 -18   10.00    8.30
   2 -18  12   13.40    5.40
 -18  -2  12    3.80   23.00
 -12  -2 -18   17.80   11.30
 -12   2  18   -3.30   13.00
 -18  12   2    6.00   11.90
  -2  18  12   -0.50    7.50
  18   2  12   10.30    5.00
  12  -2  18    8.10    7.50
  12  -2  18    8.30    4.70
   2  18 -12    6.60   19.60
   2  12  18    1.30    7.70
 -12  18  -2    8.50   18.00
  12  18   2    9.30    7.00
   4 -12  18  779.52   79.59
  -4  12  18  671.93   76.29
  18  -4  12  728.93   78.69
 -18   4  12  628.84   93.19
  -4  18 -12  750.02   91.79
 -12  -4  18  817.32   77.69
  18   4  12  724.13   77.19
  12  -4  18  671.53   77.59
  -4 -12  18  763.42   78.69
  -4  18  12  635.34   76.39
  -4 -18 -12  789.82   79.59
  -4 -12  18  574.64   75.29
 -12  -4 -18  715.03   79.19
 -12   4  18  722.43   87.09
 -18  -6 -12   31.50   24.20
   6 -12  18   75.79   16.50
  -6  18 -12   81.79   31.70
  18  -6  12   36.40   10.90
  12 -18   6   42.60   10.60
 -18  12  -6   78.09   29.70
   6  18  12   57.19   14.00
  12   6  18   61.99   17.40
   6 -12  18   39.20    9.50
 -12 -18  -6   37.90   13.10
 -18   6  12   91.29   35.40
  12  -6  18   81.99   18.60
  12  18   6   78.19   14.40
  -6 -18 -12   42.40   15.20
  12  -6  18   63.99   10.10
  18   6  12   80.29   15.50
 -12  18  -6   38.20   24.60
  18 -12   6   53.39   11.70
 -12   6  18   30.70   40.00
 -12 -18   6   52.39   16.70
   6  18 -12   71.79   25.60
 -18  12   6   83.49   17.50
 -18  12  -8  142.09   47.10
   8 -12  18  260.47   33.00
  12   8  18  233.68   31.10
 -12  18   8  286.47   32.70
   8  18  12  183.68   29.20
  12  -8  18  224.38   33.20
 -18   8 -12  213.18   51.39
  18   8  12  268.97   32.10
 -18  12   8  217.58   28.60
  12 -18  -8  235.08   27.90
 -12  -8 -18  209.38   32.40
  -8 -12  18  266.07   29.80
   8  18 -12  237.58   49.50
 -18 -12  -8  198.98   43.10
 -10  18 -12   87.79   33.90
  18 -10  12   32.30   10.30
  10 -12  18   46.60   16.20
 -10 -12 -18   27.10   14.20
 -18 -10 -12   41.60   25.30
 -12 -10  18   16.40   13.40
  10  18  12   34.60   11.60
  12  10  18   52.29   15.70
 -18  12 -10   52.09   31.90
 -10 -12  18   72.69   14.90
 -12  10  18   46.80   13.80
 -18  10 -12   56.79   32.30
 -18 -12 -10   53.09   27.60
  18 -10 -12   41.90    9.00
 -18  12  10   59.99   14.30
  18  10  12   62.29   16.10
  10  12  18   73.69   16.60
  18 -12  10   67.19   12.10
  12 -10  18   53.69   16.30
 -12  18 -10   29.00   27.30
  10 -18  12   49.20   10.10
  12  18  10   68.79   14.10
 -18 -10  12    7.50   19.20
 -18  12 -12  132.09   41.00
  12  12  18  141.29   22.50
  12  18  12  131.99   21.30
  18 -12 -12  147.39   18.10
 -12 -18  12  115.19   21.60
 -12 -12 -18  106.19   23.60
  12 -12  18  114.89   17.20
 -18  12  12  152.68   20.90
   0 -14 -18  161.48   27.10
  18   0  14  213.38   33.50
   0  18 -14  134.59   41.20
 -14  18   0  247.38   38.70
 -14   0 -18  219.58   31.60
 -18  14   0  199.48   36.00
  18   0  14  208.78   24.60
   0  14  18  249.97   28.60
  -2  18 -14    5.10   21.80
   2 -18 -14   22.60   10.00
  18 -14  -2   37.80   10.20
   2  18  14   18.20    9.70
 -14  18   2   36.60   17.60
  -2 -14 -18   -1.20    8.20
  18  -2  14   19.10   11.30
  14   2  18   18.40   10.50
  -2 -18  14    5.60    5.90
 -14   2 -18   10.60   10.30
 -14 -18  -2   34.20   15.80
   2 -14  18   10.50    5.10
 -18  14  -2   18.30   18.70
  14 -18   2   35.00    9.30
  -2  14  18   23.50   10.00
  18  -2  14   29.00    8.00
 -14  -2  18   21.10   18.40
  -2  18  14   22.10   10.20
   2  14  18   25.20    9.70
   2 -18  14   22.20    6.80
  18   2  14    8.90    9.20
   2 -14 -18    8.00    8.60
  -2 -18 -14   10.50   10.10
  18   2  14   14.70    5.00
  14  -2  18   14.20    6.20
 -14  -2 -18   16.50   11.80
  -2 -14  18   25.10    7.40
   2  18 -14    7.90   20.70
 -14   2  18   19.10   18.80
 -14  18  -2   38.50   20.60
 -18 -14  -2   -4.50   18.30
  14  -2  18   19.20   11.00
 -18  14   2   32.80   15.80
   4  14 -18  208.18   49.99
  -4  14  18  225.58   33.60
  14   4  18  287.17   36.00
  18  -4  14  220.28   35.90
  14 -18   4  330.57   33.30
  -4 -18  14  303.57   33.00
  18  -4  14  321.77   33.50
 -18   4  14  316.47   56.39
 -14  18  -4  266.67   47.10
  18   4  14  231.68   34.40
  -4 -14  18  294.57   32.70
  14 -18  -4  276.27   32.60
 -14 -18   4  328.37   40.80
  -4  18  14  270.07   34.60
   4  18 -14  317.77   52.19
 -18 -14  -4  279.57   48.10
  14  -4  18  305.27   37.50
   4 -14 -18  234.68   33.80
   6  14 -18    7.90   23.80
 -18  14  -6  -10.60   20.10
 -18   6  14   10.80   25.50
 -14 -18  -6   14.10   12.20
  -6  18 -14    9.30   23.60
  18  -6  14   13.40   11.20
 -18  -6 -14   10.30   29.50
 -14  -6  18    9.90   16.00
   6  18  14   19.40   10.10
  14   6  18    2.40    8.90
  -6 -14 -18   10.90   10.50
  -6  14  18    8.30    8.70
 -14  18   6    4.20   11.50
   6 -14  18   12.70    6.00
  18  -6  14    7.90    6.60
 -18  -6  14    0.50   19.40
 -18 -14  -6   -8.90   16.30
  14  -6  18   13.00   10.80
  14 -18  -6    2.20    5.50
   6  14  18   11.70    8.80
  14  -6  18    4.90    4.90
  -6 -14  18    3.90    6.00
 -18  14   6    8.70   10.10
   6  18 -14   10.30   20.30
 -14   6  18   13.60   20.50
  18 -14   6   10.50    7.50
  18   6  14   13.10   10.20
  -6  18  14   15.40    9.50
 -14 -18   6    4.60   11.50
 -14  18  -6   -1.60   21.50
  -6 -18 -14   -7.90    9.80
  -8  14  18  226.38   30.70
 -18  -8 -14  238.28   50.49
 -18  14  -8  210.48   49.10
 -14 -18  -8  293.77   35.50
  -8  18 -14  258.77   48.00
  14   8  18  242.78   32.50
 -18 -14  -8  311.67   50.69
  -8 -14  18  269.97   30.50
  14  18   8  232.28   30.70
  18 -14   8  189.88   28.80
 -10 -18  14   63.89   14.40
 -18  10  14   69.59   36.30
  14  10  18   78.79   17.90
 -10  18 -14   23.30   29.50
 -18  14 -10   79.69   34.50
 -14 -10  18   48.50   19.10
 -14  18  10   47.80   14.50
 -10  14  18   95.69   17.10
  18 -14 -10   92.29   13.60
 -14  18 -10  108.79   34.80
  10  14  18   86.09   17.50
 -10  14 -18  140.09   43.30
 -18  10 -14   66.19   35.60
 -18 -14 -10   31.80   22.60
  14  18  10   47.30   13.90
 -14  10  18   86.49   17.90
  14 -10  18   74.39   21.50
  14 -10  18   83.59   12.70
  18  10  14   72.79   19.20
 -10 -14  18  102.09   16.40
  14  12  18  132.89   23.20
 -14 -12  18  113.29   25.50
 -18  12  14  165.98   24.70
 -12  14  18  151.48   22.70
  18 -14 -12  135.59   18.90
 -12  18 -14   80.19   37.80
 -18  14 -12  143.09   42.20
 -12 -18  14  154.48   22.90
  18  12  14  169.28   26.00
  14  18  12  128.79   22.60
  12  14  18  156.88   23.80
 -18 -12  14   89.59   29.20
 -18  12 -14  111.59   42.00
 -12 -14  18  188.88   24.80
 -18  14  12  111.79   21.30
  14 -18 -12  142.49   19.60
  14 -12  18  164.48   19.70
 -12  14 -18  200.58   54.19
  18 -14  12  114.59   19.20
 -12  18  14  157.58   22.30
 -14  14 -18   -2.40   27.30
  18  14  14   44.00   15.20
 -14  18  14   27.00   10.70
 -14  14  18   38.60   13.10
  14  14  18   30.40   12.90
 -18  14 -14    7.30   26.20
 -14  18 -14   71.59   36.10
  18 -14  14   40.90   10.50
 -14 -14  18   32.60   13.80
  14  18  14   24.70   11.20
 -18  14  14   20.20   11.10
 -18 -16   0 1186.88  152.88
  18   0  16 1535.65  147.29
   0  18  16 1537.45  145.49
  16   0  18 1332.77  145.79
  18   0  16 1357.36  142.59
  -2  18 -16  731.93   88.29
  16   2  18  528.45   70.79
  18 -16  -2  643.44   69.69
 -18  16  -2  613.94   79.39
  16 -18   2  593.74   68.49
  -2  16  18  710.93   71.09
  -2 -16  18  731.43   68.49
 -16   2  18  550.84   82.39
  18   2  16  743.63   72.59
 -18  -2  16  663.43   85.29
  18 -16   2  606.04   69.19
  -2  16 -18  542.45   86.79
 -16  18  -2  668.93   79.79
 -18 -16   4   65.69   24.00
 -18   4  16   25.30   23.60
  16 -18   4   30.20    9.20
  18  -4  16   64.19   16.00
  18  -4  16   35.20    9.50
 -18  -4 -16   33.80   33.20
 -18  16  -4   19.60   20.30
 -16  -4  18   48.50   23.10
  16   4  18   57.59   16.20
   4  16 -18   57.99   30.30
   4  18  16   64.19   15.00
  -4  18 -16   34.10   28.50
  -4 -16 -18   14.20   10.90
 -16 -18  -4   17.10   15.70
   4 -16 -18   31.50   11.40
  18   4  16   44.70   13.10
  -4 -18 -16   67.69   17.80
 -18  -4  16   31.70   22.30
 -18 -16  -4   -4.50   17.80
 -16   4  18   86.19   31.10
 -16 -18   4    7.00   15.70
  -4  16 -18   -3.10   26.90
 -18  16   4   65.39   18.80
  -4  18  16   31.80   11.10
  16 -18  -4   51.49   11.30
  16  -4  18   27.20   13.20
   4  16  18   37.10   11.70
  18 -16   4   17.60    8.70
 -16  18  -4   88.39   26.70
  18  -6  16  166.28   20.00
 -18   6  16  112.09   39.80
  -6 -16 -18  111.59   22.60
 -18  16  -6  178.88   40.90
   6  16 -18  128.99   37.30
  -6  16  18  139.69   20.90
   6  18  16  133.99   21.30
  -6  18 -16   97.19   36.50
  18  -6  16  101.19   23.60
 -18  16   6  137.29   24.80
  -6 -18 -16  136.19   24.60
   6  16  18  137.29   21.80
  -6  16 -18  232.08   51.99
 -16 -18   6  163.98   28.60
  18   6  16  107.19   23.40
  -6  18  16  113.39   21.40
   6  18 -16   63.59   31.40
  16 -18  -6  121.59   18.80
  18  -8  16 1149.08  127.19
   8 -16  18 1352.56  126.59
 -16 -18  -8 1060.29  134.49
  18 -16  -8 1110.99  127.19
  -8 -16 -18 1163.28  129.89
  18   8  16 1433.36  131.09
 -18 -16  -8 1168.38  138.39
  -8 -18 -16 1362.66  131.29
 -10 -16 -18  558.44   59.29
 -18  10  16  586.04   82.29
 -16 -10  18  415.96   61.49
  18 -10  16  416.16   53.69
  18 -16 -10  557.24   54.59
 -16  18  10  421.66   55.09
  10  18  16  502.15   55.89
 -10  16  18  479.85   55.29
 -10  16 -18  381.46   76.89
 -10 -16  18  564.54   55.99
 -10 -18 -16  493.95   57.79
 -10  18  16  504.65   56.09
  16  12  18   25.30   12.50
  12  18  16   36.60   12.00
 -12  18 -16   65.49   36.10
  18 -12  16   10.20    7.30
 -16  12 -18   17.20   32.40
 -12  16  18   14.80    9.60
 -18  16 -12   17.90   29.00
 -18  12  16   20.00   16.40
 -16 -12  18   -1.60   13.30
 -12 -16 -18   24.00   13.70
 -12  16 -18    8.60   32.90
 -18  12 -16    4.50   32.00
 -12 -16  18   49.70   13.40
  12  16  18   36.10   12.60
  16  18  12   56.49   15.20
  18  12  16   11.70   10.90
 -16 -18  12    6.40   12.20
 -16  18 -12   15.30   27.40
 -16  12  18   36.50   13.00
  16 -12  18   25.20    8.30
 -18  16  12   42.40   12.60
 -16 -14  18  162.38   27.80
 -14 -18  16  153.48   24.30
  16  14  18  175.78   27.50
  18 -14  16  150.68   21.20
  18  16  14  190.78   28.60
 -18  14  16  194.98   26.10
 -16  14 -18  176.88   49.50
 -18  16 -14  217.18   57.09
 -14  16 -18   93.09   42.40
 -16  18 -14  101.59   40.20
  14  16  18  101.59   24.70
  18  14  16  162.88   27.00
 -14  18  16  148.99   24.00
 -18  16  14  143.09   24.50
  16 -14  18  136.29   20.00
  16  18  14  193.08   27.80
 -18 -14  16  150.38   30.10
 -18  14 -16  259.97   60.79
 -18  16 -16  808.62  123.59
 -18  16  16  957.20  103.59
 -16  18 -16  958.10  124.09
  16  16  18  910.51  104.59
  16  18  16 1009.80  104.89
  18 -16  16 1080.99  101.89
 -18  18   0 1458.85  162.08
   0  18  18 1518.55  156.08
  18 -18   0 1699.43  155.88
  18   0  18 1292.97  156.38
  18   0  18 1523.95  153.58
 -18 -18   2  615.74   73.69
 -18  -2  18  628.64   79.69
 -18  18  -2  585.74   73.89
 -18  18   2  596.14   70.99
  -2  18 -18  464.45   79.29
  -2  18  18  495.95   64.49
   2  18 -18  704.13   85.59
   2  18  18  633.84   65.89
  18 -18  -2  583.24   64.09
  18 -18   2  618.54   64.19
  18  -2  18  504.65   66.39
  18  -2  18  590.74   63.29
  18   2  18  620.54   66.79
 -18 -18  -4   14.40   17.50
 -18 -18   4   -1.80   15.40
 -18   4  18   -0.70   23.70
 -18  18  -4   -6.80   17.90
 -18  18   4   -1.00   13.00
  -4 -18 -18    4.00    9.50
  -4 -18  18    8.10    6.50
  -4  18 -18   -6.00   26.20
  -4  18  18    6.70    8.50
   4 -18  18   -0.80    4.40
   4  18 -18   -0.90   25.20
   4  18  18   -0.20    8.10
  18 -18  -4   11.30    7.40
  18 -18   4    4.70    7.00
  18  -4  18    2.20   10.10
  18  -4  18    3.70    5.40
  18   4  18    8.30   10.00
 -18 -18   6  102.39   27.30
 -18   6  18  147.09   45.70
 -18  18  -6  140.39   38.70
  -6 -18  18  114.39   18.40
  -6  18 -18   85.09   37.90
  -6  18  18  126.59   21.20
   6 -18  18  158.68   18.30
   6  18 -18  163.68   48.60
  18 -18  -6  139.29   19.70
  18  -6  18  106.09   23.90
  18  -6  18  135.19   19.40
  18   6  18  116.59   23.20
 -18  18   8 1185.28  114.29
  -8  18 -18  936.41  131.19
   8  18  18  995.10  113.29
  18   8  18 1133.29  115.89
 -18  10 -18  374.76   65.79
 -18  18  10  315.17   35.90
 -10 -18  18  220.78   31.80
  10 -18  18  292.47   31.00
  18 -18 -10  259.17   31.90
  18 -18  10  222.78   31.00
 -18 -12  18    1.40   15.00
 -18  12 -18   17.90   32.50
 -18  18 -12   16.60   28.30
 -18  18  12   18.10   11.00
 -12 -18 -18    8.30   12.70
 -12 -18  18    4.50    7.90
 -12  18 -18   -3.50   30.90
 -12  18  18    7.50    9.00
  12 -18  18    6.20    5.70
  12  18  18    6.20   10.10
  18 -18 -12   15.60    6.90
  18 -12  18    6.60    6.90
  18  12  18    6.80   11.30
 -18 -18  14   25.00   15.10
 -18  14 -18   15.60   35.30
 -18  14  18   27.60   13.50
 -18  18 -14  147.39   42.20
 -18  18  14   66.19   17.70
 -14 -18 -18   42.10   16.90
 -14 -18  18   49.30   14.60
 -14  18 -18   16.20   32.20
  14 -18  18   63.99   10.90
  14  18  18   50.69   14.90
  18 -14  18   50.99   11.70
  18  14  18   69.39   18.00
 -18 -18  16  490.65   54.79
 -18  16  18  512.75   53.89
 -18  18 -16  369.96   73.49
  16 -18  18  450.15   49.00
  16  18  18  394.46   53.89
  18 -16  18  412.26   49.20
 -18 -18  18  437.66   71.59
 -18  18  18  451.35   64.89
  18 -18  18  661.23   61.19
  18  18  18  632.84   67.69
 -19   1  -1 1672.93  170.58
  -1  -1 -19 1661.73  167.98
  -1  -1  19 1559.94  168.88
  -1  -1  19 1611.04  165.48
  -1   1  19 1809.32  169.58
   1 -19  -1 1694.43  169.38
   1  -1  19 1495.75  168.58
   1  -1  19 1490.95  165.58
   1   1  19 1806.32  169.88
 -19  -1  -3    4.40   14.40
  -3   1 -19   30.50    8.50
 -19  -3   1   -1.20   22.20
  -1  19  -3    9.20   14.70
  -3  19   1   19.10   15.80
  -1  -3 -19   22.60    8.60
 -19   3  -1   23.20   14.70
   1 -19  -3   13.30    5.20
  -1   3  19   13.90    8.80
  -3  -1  19    9.00    4.70
   1  -3  19   14.60    9.60
   1  -3  19   18.90    5.00
  -3  -1  19   17.70    9.10
   3  19  -1    1.10   11.80
   3 -19   1   21.30    6.40
   3   1  19    5.80    7.20
   1  19   3   14.20   11.60
   1 -19  -3   13.20    9.10
   1  19  -3    0.60   14.10
  -3  19  -1    8.80   14.70
 -19   1  -3   15.30   20.10
   3  -1  19   11.60    8.40
   3  -1  19   17.60    5.20
  19  -3   1    7.00    5.70
  -1  19   3    3.00   11.40
   3  19   1   15.20   12.20
  19  -1  -3   13.30    5.40
   3 -19  -1    8.20    5.80
  -3 -19   1   27.20    7.90
  -1 -19  -3   23.00    5.90
   1 -19   3   23.20    6.40
  -1  -3  19   11.80    8.90
 -19   3   1   25.20   10.50
  -3  -1 -19   12.40    7.70
   1   3  19    9.60    9.00
  -1  -3  19   24.40    5.90
  -3   1  19   13.00    8.70
 -19   3  -3 1332.87  131.69
 -19  -3   3 1160.68  141.59
   3  19   3 1246.08  125.19
  19  -3  -3 1140.29  122.19
   3  -3  19 1267.97  125.19
  -3  -3  19 1210.28  124.49
   3 -19  -3 1075.39  121.89
   3   3  19 1119.09  124.09
  -5 -19  -1    7.50    5.20
  19  -5  -1   19.60    7.00
 -19  -5   1    4.00   23.90
  -5  -1  19    6.60    7.90
  -5  -1  19    6.80    4.30
  -5   1 -19   22.10    8.00
  -5  19   1   28.30   16.50
  -1  -5 -19    9.40    7.70
  -1 -19   5    5.80    5.00
  -1  19  -5   16.10   16.70
   1  -5  19    9.40    4.00
   1  -5  19    6.80    8.90
   1 -19  -5   10.30    4.80
   1 -19  -5    6.60    8.40
   1  19   5    2.40    8.70
  -1   5  19    7.50    8.30
 -19   5  -1    3.40   13.10
   5  19  -1   10.40   10.40
  19  -1   5   19.30    6.40
   5   1  19    6.60    8.60
 -19  -1  -5   33.30   17.70
   5  -1  19    6.80    6.90
 -19   1  -5   22.70   17.40
   5  19   1   13.10    9.60
  -5  -1 -19    8.10    7.60
   5  -1  19    8.10    3.60
   1   5  19   19.70   10.10
   1  19  -5   19.80   16.40
 -19  -1   5   -2.90   22.00
 -19   5   1   17.60   10.50
  -1 -19  -5   13.30    9.70
   1 -19   5   11.50    5.10
  -5  19  -1   10.00   16.30
  -5   1  19    2.70    7.80
  -5   1  19    8.80    5.20
  -1  -5  19   10.50    8.80
   5 -19  -1    8.20    5.20
  19  -5   1    7.70    6.00
  -1  19   5    8.70   10.50
  -1  -5  19   12.60    4.60
  -5 -19   1    8.70    5.70
   5   3  19 1081.09  106.09
   3  -5  19  936.71  105.59
  -3   5  19  952.10  104.59
  -3  19  -5  995.80  113.49
   3 -19  -5 1102.89  104.29
  -5  -3  19 1114.69  106.09
 -19   5  -3  879.11  111.29
  -3  -5  19 1016.50  102.89
  -5   3  19  989.80  105.09
  19  -5   3  991.70  104.19
   5  -3  19  935.51  105.69
 -19  -3   5 1067.69  123.79
 -19   3  -5  860.71  112.79
 -19   5   3  983.80  104.99
  -5  19  -3  994.50  112.79
   3   5  19 1056.19  105.69
   5   5  19  869.51  102.49
   5 -19  -5 1077.99   96.99
   5 -19  -5  850.91   96.49
  -5  -5  19  857.31   98.99
  -5   5  19  835.42   98.09
 -19   5   5 1088.19   97.79
  -5 -19  -5 1008.40   97.29
 -19   5  -5  785.72  107.39
 -19  -5   5  995.50  118.39
   5  19  -5  979.00  104.59
   1  -7  19  548.35   61.09
 -19   7  -1  604.94   70.49
   7   1  19  637.64   68.29
   1  -7  19  670.13   66.09
   7  19  -1  599.14   65.29
   1   7  19  579.74   66.99
   1 -19   7  591.14   65.39
   1  -7 -19  522.45   63.19
  -1  -7  19  489.45   61.09
  19  -7   1  552.24   64.29
   1  19  -7  613.44   72.99
  -7  -1 -19  556.74   64.39
  19   1   7  649.54   65.79
  -7   1  19  597.54   64.59
  -7   1  19  659.33   64.79
 -19   7   1  599.14   67.69
 -19   7  -3  117.69   31.70
  -7  -3  19  155.48   19.30
  -3   7  19  138.19   19.70
  -7  -3  19  134.09   21.10
  -7 -19  -3  134.09   17.30
   7   3  19  135.29   20.00
 -19  -7   3  117.79   36.50
   7 -19   3   96.79   16.60
  19  -3   7  110.59   17.20
  -3  -7 -19  140.89   20.80
  -3  19  -7  181.08   35.60
   7  19   3   91.09   18.50
   3   7  19  120.09   20.70
   7  -3  19  114.09   19.60
  -7   3  19  153.08   20.60
  19   3   7  135.89   21.00
  -3  -7  19   97.39   15.80
  -3  -7  19  109.59   20.30
   3 -19   7  151.18   16.90
 -19   7   3  104.29   21.80
  -7  -5  19   33.50   11.20
   5  -7  19   30.90   11.80
  -5   7  19   40.10   11.80
   5 -19  -7   33.90   10.50
  -7 -19  -5   27.60    8.00
   5  19   7   35.40   10.80
   7  19  -5   66.69   17.90
  -5  19  -7   19.60   21.50
   7   5  19   36.60   11.80
   5  -7  19   30.40    7.50
  19  -7  -5   26.20    8.90
 -19   7  -5   59.79   25.50
  -7  -5  19   18.40    8.40
   7  19   5   43.90   12.20
 -19   7   5   60.39   13.50
  -5 -19  -7   35.90    7.70
  -5  -7  19   38.80    8.90
 -19   5  -7   29.40   23.40
   5  19  -7   41.60   17.60
  -7  19  -5   53.69   23.50
   5   7  19   24.60    9.80
  -7   5  19   39.90   11.10
  -7  -5 -19   49.60   15.20
  -5  -7  19   45.80   12.80
 -19  -7  -5   74.29   31.70
  -5  19   7   71.39   17.30
   7  -5  19   39.60   12.60
  19   5   7   40.30   11.80
   7  19  -7  374.16   46.40
  -7   7  19  345.77   39.70
  -7 -19   7  301.97   38.20
  -7  -7  19  366.56   40.70
   7   7  19  329.37   40.60
   7  -7  19  316.07   42.00
  -1   9  19  662.03   67.99
  -1  19  -9  675.43   79.49
   1 -19  -9  693.23   65.49
  19  -1   9  538.45   66.19
  -9  -1  19  554.14   68.19
   1  19   9  561.74   68.39
   9   1  19  630.64   68.89
  -1  -9  19  715.73   70.69
  -9 -19   1  568.24   67.69
  -1  19   9  599.04   67.99
  -9   1  19  674.23   74.19
   9  19   1  574.54   66.89
  19   1   9  623.94   66.19
   9  -1  19  716.23   69.79
 -19  -1   9  714.93   89.49
   3  19   9    3.00    7.60
   9  19  -3    1.70    8.40
  -9 -19  -3    2.60    5.50
   3 -19  -9    0.70    6.70
  -9   3 -19    3.90    6.80
  -3   9  19   -1.60    7.20
 -19   9  -3   18.50   17.00
  -9  -3  19    0.40    8.30
   3  -9  19    6.60    9.70
   3 -19  -9    4.80    3.70
   9 -19   3    5.50    5.40
   9   3  19   -3.00    7.70
   3  -9  19    7.20    4.70
  -3  -9 -19    7.00    6.90
  19  -3   9    5.30    5.60
  -9  19   3    9.20   14.10
  -3  19  -9   11.50   19.80
  -9   3  19    3.80    7.20
  -9  -3 -19   -1.80    8.60
  -3 -19  -9   10.80    9.70
   3  -9 -19    2.10    7.70
   3   9  19    0.10    7.50
  19   3   9    3.90    3.70
  19  -9   3    2.20    5.50
  -3 -19  -9    3.70    3.30
   9  -3  19    3.90    8.80
   9  -3  19    4.90    4.30
   3  19  -9    5.60   17.00
  -3  19   9    1.20    7.70
  -3  -9  19   -4.20    7.90
   3 -19   9    2.50    4.60
  -9  19  -3    1.90   18.00
   9 -19  -3    1.10    4.00
 -19  -3   9    6.90   24.00
  19   3   9    0.20    8.00
  -9 -19   3    1.80    6.90
   9  19   3    6.60    7.90
  -5   9  19   49.10   10.70
  -9 -19  -5   31.80    8.90
 -19  -5  -9   33.90   26.50
 -19   9  -5    8.70   18.40
   5 -19  -9   27.80    7.60
 -19  -9   5   40.40   25.90
   9 -19   5   20.00    7.60
   9  19  -5   36.90   13.70
   5  19   9   27.70   10.10
  19  -5   9   19.80    8.10
  -5  -9 -19   17.30   10.70
  -5  19  -9    7.70   20.60
   5  -9  19   15.00   11.70
   9   5  19   27.70   11.70
  -9  -5  19   51.89   14.00
  -9  19   5   25.90   13.00
   5 -19  -9   27.50    8.50
  19   5   9   38.40   11.70
   9 -19  -5   33.80    7.70
   5   9  19   62.39   14.70
  -9  -5 -19   38.10   13.20
   5  19  -9   21.30   17.20
  -9   5  19   21.80    9.70
  -5  19   9   36.70   11.60
 -19  -9  -5   41.30   27.30
   9  19   5   36.10   10.00
   9  -5  19   37.40   12.50
  -9  19  -5   35.10   22.50
 -19   5  -9   38.50   25.90
  -5  -9  19   37.80   12.10
 -19  -7  -9  471.25   81.79
  -7  -9 -19  613.84   69.19
  -7  19  -9  650.43   82.19
   7 -19   9  622.64   65.89
   9  -7  19  624.24   70.09
  -7  -9  19  667.73   67.29
 -19   7  -9  657.13   84.39
  19   7   9  655.33   68.19
  -9  19  -7  731.23   83.49
   7   9  19  582.04   68.29
   9 -19  -7  566.74   64.99
   9  19   9 1126.29  110.59
  -9   9  19 1110.29  109.99
   9 -19  -9 1051.29  108.39
   9  -9  19  877.81  111.59
 -19   9  -9 1258.27  128.89
   9   9  19  902.91  110.19
  -9 -19  -9 1143.09  108.89
   9  19  -9  940.81  128.89
 -19   1  11    0.00   24.10
  -1 -11 -19   29.80   10.40
  19  -1  11   24.50    7.00
 -19  11  -1   34.40   16.80
 -11  19   1   16.30   17.40
  -1  19 -11    5.30   19.40
  11  19  -1   11.90    7.40
 -11 -19  -1   14.00   12.30
  -1  11  19    6.20    7.60
   1  19  11   16.60    8.60
   1 -11  19   11.00   10.30
  11   1  19   20.00   10.60
 -11  -1  19   12.80   13.20
 -11   1 -19    4.40    8.70
  11 -19   1   23.50    7.40
   1 -19 -11   31.90   10.60
  19  -1  11   14.70    9.90
  -1 -11  19   25.60    6.70
 -19  11   1   11.60   12.50
 -11   1  19   37.00   19.50
  11  19   1   12.70    7.80
 -11  -1 -19   21.80   10.80
  11  -1  19   12.60    5.70
  19   1  11   18.50   10.10
 -19 -11  -1    4.20   22.30
   1  11  19    8.10    8.20
  -1 -19 -11   11.00    9.40
 -11  19  -1    8.00   17.90
  -1  19  11    6.50    8.70
  -1 -11  19   16.20   10.80
  19   1  11   26.10    6.70
  11  -1  19   17.70   10.70
   1 -11 -19   12.50    8.90
  -3 -11 -19  580.74   76.99
 -19  11  -3  745.83   87.99
  11  19  -3  791.52   76.19
  19  -3  11  646.94   78.89
  -3  11  19  790.52   77.19
  11   3  19  632.54   77.89
   3 -11  19  740.73   79.99
   3  11  19  695.93   77.29
  11  -3  19  827.02   75.59
  11  -3  19  786.32   79.19
  11 -19  -3  621.74   76.19
 -11 -19   3  667.53   78.59
  19   3  11  825.12   79.09
  19   3  11  702.23   75.09
 -11   3  19  699.33   77.79
 -19 -11  -3  712.63   93.19
  -3  19  11  694.33   78.09
  -3 -19 -11  781.42   80.29
  -5 -19  11  325.87   38.30
  -5  11  19  380.46   40.20
   5 -11  19  352.46   43.30
 -19   5  11  242.68   58.99
 -11  -5  19  307.17   44.00
  11  19   5  295.97   38.40
  19   5  11  372.16   41.30
  11  -5  19  412.46   43.30
   5  19 -11  347.77   52.79
  -5 -11  19  363.26   42.70
  -5 -11  19  288.37   39.20
 -19  11  -7   -4.00   21.40
  19 -11  -7    5.80    5.10
  11   7  19    4.40    9.40
 -19 -11   7   -5.40   19.00
  -7 -11 -19    7.00   10.20
  -7  19 -11   -7.20   21.00
   7  19  11    4.80    7.80
 -11  -7  19   -3.20   17.00
   7 -11  19   -0.40   10.00
 -19  -7 -11    0.60   20.40
 -19   7  11   -3.40   24.30
   7 -11  19    1.20    4.50
 -11 -19  -7    1.40    7.50
  -7  11  19    3.90    7.40
 -11  19   7    8.10   11.00
 -11  19  -7   11.30   17.70
  11  -7  19    0.80    4.00
 -19 -11  -7   -6.10   31.00
 -19   7 -11    7.90   25.40
   7  11  19    3.80    8.50
  -7  19  11    3.70    8.40
  19 -11   7   -2.80    5.80
 -11   7  19    2.60   10.10
   7  19 -11   14.20   18.10
  -7 -11  19    0.30    5.90
  11  -7  19   -2.20   10.00
 -11  -7 -19    3.10    8.00
  11 -19  -7    7.50    5.30
  19   7  11    2.40    8.40
   7 -19  11    0.40    5.00
  11  19   7   -0.10    7.10
  19  -9  11   75.49   12.90
  11   9  19   60.19   16.40
 -19  -9 -11   18.00   24.90
 -19  11  -9   15.40   25.80
  -9 -11 -19   39.20   14.10
  -9 -19  11   44.60   12.70
  -9  11  19   67.59   14.50
   9 -11  19   45.80   15.30
   9 -11  19   55.09   10.10
   9  19  11   32.90   11.50
  -9  19 -11   29.30   27.40
 -11  -9  19   47.20   15.40
  -9 -11  19   60.29   13.70
 -11  -9 -19   63.39   19.10
 -11   9  19   68.39   14.10
  11  19   9   70.29   15.30
  11  -9  19   55.89   16.70
  11  -9  19   48.30    9.90
 -19   9 -11   25.10   29.00
 -19 -11  -9   23.20   30.50
  19 -11   9   58.29   12.20
   9  11  19   61.69   16.40
 -11  19  -9   77.89   30.00
  19  -9 -11   43.80    9.70
  11  11  19   35.40   12.90
 -19 -11  11    4.50   18.90
  11 -11  19   51.39   16.40
 -11  19  11   40.30   12.30
 -19  11 -11   61.49   32.30
 -19 -11 -11   75.59   30.10
 -11 -11  19   43.60   14.10
 -11  19 -11  104.99   34.00
 -11 -11 -19   30.50   13.40
  19 -11 -11   38.30    8.90
  11 -11  19   39.20    9.00
  19 -13  -1    8.90    7.70
   1 -13  19   16.90   12.10
   1 -13  19   18.20    5.90
  -1  13  19   16.80    8.00
 -19   1  13   17.60   27.10
 -13 -19  -1   16.10   11.40
 -13  -1  19   23.50   17.50
 -13   1 -19   23.70   11.80
 -19  13  -1   20.00   17.30
  13 -19   1   13.00    6.70
 -13  19   1   15.70   16.60
  19  -1  13   30.40   12.20
  13   1  19   29.50   11.80
   1  19  13   11.30    7.80
   1 -19 -13   26.40   10.50
  -1  19 -13    5.40   20.30
  13  -1  19   18.30    6.90
  -1 -13  19   19.60   12.10
  19   1  13   32.00   12.70
 -13  19  -1   22.40   17.10
  19 -13   1   19.00    8.50
   1 -13 -19   38.00   10.90
 -19  -1  13   11.50   24.60
   1  13  19   38.70   11.00
 -13 -19   1   14.50   11.80
  19   1  13   23.80    6.90
  13  -1  19   21.30   10.90
 -13  -1 -19   35.80   14.10
  -1  19  13   23.40   10.50
  -1 -13  19   10.10    5.40
   1  19 -13    6.10   19.60
  13 -19  -1   34.50    9.00
 -13   1  19   44.00   20.40
   3 -13  19 1004.60  109.79
  13   3  19 1221.58  114.39
  -3  13  19 1125.89  112.49
  19  -3  13 1069.29  114.49
   3 -13  19  982.30  114.49
  19   3  13 1012.80  113.09
  -3 -13  19  913.01  110.19
   3  19 -13 1163.38  124.39
 -13  19  -3 1221.78  123.39
 -19  13  -5  809.22   99.89
  -5  19 -13  672.53  100.79
  -5 -19  13  731.63   86.49
   5 -13  19  831.82   91.19
   5 -19 -13  879.21   87.79
  13 -19   5  820.32   86.89
  19  -5  13  884.11   91.79
   5  19 -13  691.53   97.99
  -5 -13  19  856.51   86.89
  13  -5  19  921.61   91.09
  19   5  13  895.41   89.69
   7 -13  19   15.20   13.20
 -13 -19  -7   37.10   12.20
 -19   7  13   22.80   28.10
 -19  -7 -13   -8.40   21.00
  -7  13  19   37.30   11.30
 -19  13  -7   52.69   26.60
  19 -13  -7   32.10    9.90
  -7  19 -13    0.20   25.30
  13   7  19   27.10   12.20
  -7 -13 -19   -0.90    9.70
   7  19  13   16.00    9.80
 -13  19   7   38.50   14.00
  -7 -19  13   12.40    7.60
   7  13  19   25.00   10.50
  13  -7  19   16.90   12.50
  13  -7  19   18.90    8.20
  -7 -19 -13   25.10   13.80
 -13  -7 -19    3.10   11.20
 -13  19  -7   13.50   21.90
 -19  13   7   16.50   10.80
 -19   7 -13   22.50   28.70
 -13   7  19   39.80   11.30
  13  19   7   34.10   10.60
  19   7  13   21.80   11.60
  13 -19  -7   37.00    9.30
   7  19 -13   20.00   23.10
 -19  -7  13    3.80   19.90
  -7  19  13   19.70    9.90
 -19 -13  -7   -4.50   20.20
  -9 -13 -19   -5.30    9.80
 -13  19   9    2.40    8.00
 -19  13  -9   -7.30   23.50
  19 -13  -9   -0.40    4.30
 -19 -13   9   -2.80   17.00
  13 -19   9   -1.10    5.00
  -9  13  19   -4.40    7.30
   9 -13  19   -0.10    4.50
  -9  19 -13  -15.80   23.60
   9  19  13    1.30    8.20
 -19   9  13  -14.00   22.30
 -19  -9 -13    1.60   28.00
  13   9  19    2.10    9.60
  19  -9  13    0.30    5.80
 -19  13   9    2.30    8.70
 -13  -9 -19    2.20    8.00
  13  -9  19  -10.10    9.40
  13  -9  19   -0.20    4.10
  13  19   9    2.50    8.10
 -19 -13  -9    2.50   20.40
  19   9  13    2.10   10.10
  -9  19  13    1.20    8.40
  13 -19  -9   -3.30    6.70
 -19  -9  13    1.40   19.00
 -19   9 -13   -1.10   27.60
 -13  19  -9    6.40   24.00
  19 -13   9   -0.80    6.00
 -13 -19   9   -0.30    9.40
 -13   9  19    2.50    7.80
  -9 -13  19   -1.10    6.20
   9  13  19    0.70    8.20
  11  19  13  275.17   38.60
  19 -13 -11  300.07   37.60
  11 -13  19  392.46   38.10
 -13  19  11  373.16   40.90
  11  13  19  385.56   42.00
 -19 -11  13  276.37   49.20
 -11 -13  19  283.87   39.60
  19 -13  11  306.27   38.30
 -13  11  19  361.56   40.20
 -13  13  19  566.54   71.29
  13 -13  19  747.63   69.89
  13  13  19  694.73   73.39
  19 -13 -13  556.94   69.09
  13  19  13  655.23   71.39
 -19  13 -13  551.94   90.29
 -13  19  13  756.32   72.89
 -15  -1  19  202.48   60.59
  19  -1  15  140.39   26.20
   1 -15  19  147.39   18.70
  15   1  19  136.99   24.20
   1  15 -19  153.58   47.30
   1 -19 -15  200.98   24.40
   1  19  15  129.29   22.40
 -19   1  15   87.59   36.10
  -1  15  19  194.48   23.90
  -1  19 -15  142.39   39.10
 -15  19   1  150.78   31.50
 -19  15  -1  106.39   31.20
 -19 -15   1  192.98   38.00
  19  -1  15  156.58   19.80
  -1 -19  15  130.79   18.80
  15 -19   1  145.59   20.10
 -19  15   1  168.38   31.70
 -15   1  19  146.99   35.70
  15  -1  19  161.08   19.90
  19   1  15  149.59   25.60
   1  19 -15  108.49   34.10
  15  -1  19  138.99   24.20
   1 -15 -19  186.88   23.50
  -1  15 -19  119.29   38.90
  19 -15  -3  105.39   18.90
  -3 -15 -19  162.58   22.80
 -19  15  -3  165.48   35.60
  -3  15  19  165.58   22.30
 -15 -19  -3  127.79   26.10
  19  -3  15  130.39   24.00
   3  19  15  107.89   20.90
  15 -19   3  108.59   17.80
   3  15 -19  139.29   41.70
 -19   3  15  131.99   40.00
  15   3  19  145.79   24.00
 -19 -15   3  180.38   35.40
  15  -3  19  159.58   24.30
 -15 -19   3  170.18   27.90
   3  19 -15   99.49   31.20
 -15  19  -3  110.19   33.80
   3  15  19  163.68   22.20
  15 -19  -3   91.89   17.50
 -19 -15  -3  164.58   38.00
  15  -3  19  120.59   17.60
  19 -15   3  107.09   18.70
  19   3  15  161.68   24.80
  -3  15 -19   58.89   33.10
  -5 -19  15   50.59   10.80
 -19  15  -5   59.69   26.00
 -15 -19  -5   28.00   14.60
  -5  19 -15   52.29   28.60
   5  15 -19   93.69   33.30
   5  19  15   17.90   10.90
 -19  -5 -15   40.50   27.80
  -5  15  19   38.90   11.60
  15   5  19   41.60   13.60
  19  -5  15   34.90   13.90
 -19   5  15   83.99   34.90
  19  -5  15   38.60   10.30
 -15  19   5   43.10   16.10
  -5 -19 -15   42.30   14.50
  15  -5  19   42.50   14.80
  -5  15 -19   57.29   32.50
  -5  19  15   27.20   11.10
  15  -5  19   38.80   10.00
   5  19 -15   30.90   26.10
   5  15  19   44.50   12.10
  15 -19  -5   26.50    9.30
 -19  -5  15    5.30   20.60
   5 -19  15   30.20    8.90
 -19  15   5   13.00   12.50
 -15  19  -5   14.40   20.70
 -15   5  19   -4.30   19.10
 -19 -15  -5   51.79   25.80
  19   5  15   39.30   13.60
 -15 -19   5   66.49   19.90
  19  -7  15   54.79   12.50
 -19  15  -7  104.79   31.60
  -7  19 -15   95.09   34.30
  -7 -15 -19   38.60   12.70
   7  15 -19   18.60   29.30
 -19   7  15   77.99   32.80
  -7  15 -19   82.89   31.50
  -7 -19 -15   32.30   14.40
 -19  15   7   52.09   15.00
  19   7  15   69.39   18.90
  15 -19  -7   57.59   12.30
 -15  19  -7   28.00   25.20
  19 -15   7   40.20   11.40
   7  15  19   35.30   12.40
 -15  -7 -19   47.90   15.90
 -15  19   9  145.59   22.80
   9  19  15  115.09   21.70
 -19  15  -9  207.38   47.20
  19 -15  -9  157.08   20.60
  -9  15  19  174.98   23.70
 -19   9  15   80.19   44.30
   9 -15  19  145.89   19.30
   9  15  19  134.09   23.10
  15  19   9  130.39   23.40
   9 -19  15  147.99   19.30
 -19   9 -15  268.97   55.39
 -15  -9 -19  169.78   25.20
  -9  19  15  158.38   23.50
  -9 -19 -15  145.49   26.70
 -19  11  15   38.00   34.30
 -11  15  19   49.60   14.80
 -11  19 -15   22.20   31.20
  15 -19  11   15.90    7.80
 -19  15 -11   36.10   27.70
  11  19  15   37.60   12.40
  11 -15  19   46.20    9.20
 -15 -11  19   16.50   15.20
  15  11  19   32.00   13.10
 -11  15 -19   -3.60   30.30
 -15 -19  11   16.60   12.70
 -19  15  11   19.90   11.20
  19  11  15   35.90   13.60
 -11  19  15   26.80   11.20
 -19 -15 -11   53.79   30.80
  15 -11  19   30.90    8.90
  11  15  19   56.19   16.50
 -15  11  19   30.40   11.60
  15 -19 -11   42.10   12.50
  15  19  11   32.30   11.70
 -19 -11  15   42.50   21.50
 -15 -11 -19   20.90   11.90
 -15  19 -11   70.09   31.40
 -19  11 -15   54.99   35.60
 -19 -15  13  180.18   31.80
 -19  13  15  159.48   36.50
 -13  19 -15   73.59   38.30
 -13  15  19  129.19   22.30
 -15  19  13  139.99   22.50
 -15  13 -19  104.29   43.00
  15  13  19  112.09   24.30
 -19  13  15  102.29   44.60
  13  19  15  121.59   22.10
  15 -19  13  113.49   18.10
 -19  15 -13  213.08   53.69
 -13 -19  15  152.08   22.30
 -13 -15  19  128.59   22.40
 -15 -19  13  133.59   23.50
 -13  15 -19  202.28   57.69
  13  15  19  127.79   23.30
  15 -13  19  155.58   19.10
 -19  13 -15  232.18   55.49
  15  15  19   47.00   14.50
 -15  19  15   41.40   13.20
  15 -19  15   29.90    9.30
 -15 -15 -19   39.60   16.20
 -15  15 -19   32.10   37.20
 -15  15  19   49.00   14.30
 -15  19 -15   52.09   34.20
 -19  15  15   82.69   18.90
 -19  15 -15   49.00   34.50
  19  15  15   76.69   22.80
 -15 -15  19   58.99   16.40
  15  19  15   55.29   15.80
  -1  19 -17  531.85   89.39
 -17 -19  -1  658.93   81.39
  17   1  19  679.73   76.19
 -17  -1  19  565.84   85.39
  19   1  17  732.63   77.19
  17  -1  19  738.63   77.19
 -19  17   1  737.43   82.59
  -1  17 -19  605.54   92.99
   1 -17 -19  745.23   74.59
   1  17  19  724.43   75.39
   3  17 -19   33.00   27.80
   3  19  17   60.09   16.00
   3 -17  19   67.89   11.10
 -17  -3  19   24.20   21.40
 -17 -19  -3   65.69   22.00
 -19   3  17   45.50   30.20
  17   3  19   68.99   17.80
  17 -19   3   44.00   11.90
 -19  17  -3   95.89   26.50
  -3  19 -17   65.09   31.00
  19 -17  -3   85.19   14.80
  -3  17  19   62.59   16.30
  19  -3  17   58.39   17.50
  19  -3  17   85.79   13.30
  -3  17 -19   16.80   28.80
   3  19 -17  115.39   34.60
 -17  19  -3   34.80   21.90
  17 -19  -3   71.99   13.50
  -3  19  17   61.89   15.90
 -17 -19   3   53.99   20.90
  17  -3  19   70.69   19.20
   3 -17 -19   35.50   12.60
  -3 -19 -17   47.50   14.30
 -17  -3 -19   40.90   16.10
 -19  17   3  108.69   24.50
  19   3  17   60.89   18.20
  17   5  19    2.20   10.10
   5 -17  19    0.10    4.50
  19 -17  -5   -1.70    5.90
 -19   5  17  -18.70   23.10
 -17 -19  -5    3.30   14.30
   5  17 -19    2.20   24.00
  19  -5  17    2.40    5.90
 -17  19   5    4.00   12.00
 -19  17  -5  -13.90   18.50
  19  -5  17   -0.20   10.50
 -17  -5  19    7.70   16.90
  -5  19 -17   -3.00   23.00
  -5  17  19   -4.80    8.20
   5  19  17    0.50    8.10
  -5 -19  17   -3.70    5.00
  -5 -17 -19    0.00    8.90
 -17   5  19    0.50   22.50
  19 -17   5   -1.30    6.40
 -17 -19   5   -4.40   13.30
 -19 -17  -5   -5.40   17.80
   5  17  19    2.00    8.90
  17 -19  -5   -2.80    5.30
 -19  17   5   -2.60   10.90
  19   5  17    3.20   10.10
  -5 -19 -17   -0.70    9.80
 -17  19  -5   -2.50   19.40
 -19  -5  17  -11.90   16.60
   5 -19  17    3.00    4.90
  -5  19  17    2.80    8.60
  -5  17 -19    5.40   28.40
   5  19 -17   11.00   22.80
  17  -5  19   -3.60    4.90
  17  -5  19   -1.40   10.70
  19 -17  -7  437.06   50.89
   7  17 -19  593.54   77.69
  -7  17  19  441.06   52.09
 -17  19   7  351.76   52.99
  17   7  19  394.86   53.09
  -7  19 -17  495.55   73.99
  19   7  17  494.25   55.19
  -7  17 -19  452.25   74.09
 -19 -17  -7  464.05   63.39
  -7 -19 -17  478.75   54.39
  -7  19  17  513.05   52.59
  -7 -17  19  416.06   50.39
   7  19 -17  439.96   70.99
 -17  19  -7  518.75   67.99
 -17 -19   7  453.35   57.39
  -9 -17 -19 1057.99  101.09
  -9 -19  17  963.00   97.59
  19  -9  17  768.72   96.59
  -9  17  19 1023.00   99.09
  -9 -17  19  819.32   96.79
 -17  19  -9  931.11  113.79
  -9 -19 -17 1074.19  101.89
  -9  17 -19  920.11  119.89
 -19 -17  -9  952.60  112.49
  17  -9  19  989.50   97.69
  19 -17   9  854.11   96.89
  19   9  17  754.72   99.19
  17 -19  11   42.80   10.40
 -17  11 -19   22.90   33.70
  11  19  17   26.50   11.70
 -11  19 -17   43.50   33.80
  17  11  19   38.60   13.50
 -17 -11  19   41.80   19.20
 -17  19  11   45.20   13.70
 -11 -17 -19   48.80   15.80
 -11 -19  17   38.60   12.20
 -19  17 -11   57.99   31.90
 -11  17  19   49.20   13.60
 -19  17  11   45.80   13.50
  11 -19  17   44.10    9.60
 -19  11 -17   33.80   33.30
 -11  19  17   41.50   13.00
  17 -19 -11   25.70    9.40
 -11  17 -19   16.00   32.40
 -11 -19 -17   18.70   13.90
  11  17  19   19.30   11.90
  19  11  17   34.90   14.80
 -17  19 -11   41.70   30.00
 -13 -17 -19    1.70    9.30
  13  19  17   -3.30    9.50
  19 -13  17   -2.70    5.80
 -13  17  19    2.60    9.20
 -17  13 -19   -6.50   31.70
 -13 -19  17   -3.00    7.20
 -17  19  13    3.30    9.20
  17 -19  13    1.70    5.60
  17  13  19    2.10    9.90
 -17 -13  19   -3.30   11.80
  19 -17 -13    0.20    4.80
 -19 -17  13  -11.70   12.70
 -19  17 -13   11.10   27.40
 -13  19 -17   11.10   31.90
  19 -17  13    1.90    6.20
 -13  19  17   -4.50    8.40
 -17  19 -13    5.30   27.90
 -13 -19 -17   -2.80   12.10
  17  19  13    4.70   12.00
 -13 -17  19    1.00    8.30
 -19  13 -17    4.90   32.20
  19  13  17    0.20   11.00
  13 -19  17   -0.30    5.10
 -13  17 -19    2.10   31.20
  13  17  19    8.00   10.10
  17 -13  19    0.80    5.50
 -19  17  13   -1.10    8.50
 -19 -13  17    0.50   14.60
 -17  13  19   -8.00    9.80
  17 -19  15  149.19   18.00
 -15 -19  17  127.89   21.20
  15  19  17  149.99   24.10
 -17  19  15   91.19   21.90
 -19  17 -15  250.77   58.19
 -19  17  15   79.79   22.10
 -17  19 -15  196.58   52.39
 -15  17 -19   67.49   41.50
 -19  15 -17  102.59   40.80
 -15  19  17   93.49   20.60
 -17 -17 -19  494.95   60.49
 -17  19 -17  633.94   86.09
 -17  19  17  424.56   55.59
  17  17  19  433.16   57.79
  17  19  17  571.34   60.79
 -19  -1 -19  143.79   28.90
 -19   1 -19  213.58   43.10
 -19  19  -1  130.89   35.40
  -1  19 -19  162.18   46.20
   1 -19 -19  128.49   22.20
  19  -1  19  191.98   28.10
  19   1  19  138.39   25.80
 -19 -19   3  155.08   33.60
  -3  19 -19  178.48   49.60
  -3  19  19  185.88   28.00
   3 -19 -19  197.28   27.50
  19  -3  19  207.88   31.40
  19  -3  19  207.68   25.50
  19   3  19  199.58   29.90
 -19 -19  -5  115.09   30.10
 -19 -19   5  119.19   28.40
 -19   5  19   83.09   36.40
 -19  19  -5  121.19   35.80
 -19  19   5  113.19   26.10
  -5  19 -19  161.28   48.60
   5  19 -19  171.08   47.10
   5  19  19  134.09   21.40
  19  -5  19  133.49   19.10
  19   5  19  108.79   24.20
 -19 -19  -7   14.60   16.30
 -19  -7  19   -9.10   16.10
 -19  19  -7    6.20   22.20
 -19  19   7   -1.90   10.40
  -7 -19 -19    1.20    9.60
  -7 -19  19    5.10    6.70
  -7  19 -19    1.10   28.00
  -7  19  19    7.00    9.60
   7  19 -19    0.70   28.60
   7  19  19    9.20    9.70
  19 -19   7    7.70    7.90
  19  -7  19   -3.90   11.70
  19  -7  19   12.40    7.70
  19   7  19    1.50   10.30
 -19 -19  -9   88.29   25.80
 -19 -19   9   29.90   17.60
 -19  -9  19   92.79   26.00
 -19  19  -9   37.30   27.10
 -19  19   9   53.99   14.80
  -9 -19 -19   57.89   15.70
  -9  19 -19   54.09   34.50
  -9  19  19   22.80   11.50
   9  19  19   47.40   13.50
  19 -19   9   42.60   11.30
  19   9  19   34.60   14.60
 -19 -19  11  144.69   28.20
 -19 -11  19  142.59   29.70
 -19  11 -19  123.49   46.20
 -19  19 -11  200.98   48.20
 -19  19  11  174.98   25.40
 -11  19 -19   87.59   40.60
 -11  19  19  135.79   23.40
  11  19  19  153.08   23.90
  19  11  19  137.29   26.50
 -19  13 -19   81.39   43.20
 -19  19 -13  181.48   50.59
 -19  19  13  173.08   26.90
 -13  19 -19  218.68   58.59
  13 -19  19  174.48   21.40
  13  19  19  154.08   27.60
  19 -13  19  161.38   22.90
  19  13  19  170.18   30.60
 -19 -19  15   -2.10   11.10
 -19 -15  19   -3.60   12.20
 -19  15 -19   -7.60   30.80
 -19  19 -15   18.20   30.40
 -19  19  15    5.90   10.50
 -15 -19 -19   -2.40   13.10
 -15  19 -19  -19.70   27.70
 -15  19  19    1.60   10.10
  15 -19  19   -1.10    5.10
  15  19  19    3.50   10.80
  19 -19  15    1.90    5.80
  19 -15  19   -0.50    6.20
  19  15  19   -6.00   12.20
 -19 -17  19  127.09   21.60
 -19  17 -19   68.39   41.00
 -19  17  19   51.69   17.50
 -19  19 -17   83.49   39.70
 -19  19  17  125.79   22.90
 -17 -19  19   89.69   18.20
 -17  19 -19  212.28   57.09
  17  19  19   98.59   24.80
  19 -19  17   95.39   15.40
  19 -17  19   69.49   14.70
  19  17  19  101.29   27.20
 -19 -19 -19   -2.40   13.20
 -19 -19  19   -0.30    8.60
 -19  19 -19  -10.10   31.20
 -19  19  19   -0.80   11.90
  19 -19  19   -1.40    5.70
   0 -20   0 3332.07  346.77
   0   0  20 3107.39  346.77
   0  20   0 3870.11  352.36
  -2 -20   0    6.30    4.80
  -2  20   0   13.30   14.30
   0  -2  20    9.10    9.00
   0   2  20    7.30    7.90
   2 -20   0    6.90    4.90
   2  20   0    7.80   12.30
  20   0   2    7.60    5.00
   0 -20   2   11.00    5.00
   0  20  -2   -9.20   13.30
   0  20   2   17.90   12.70
   2   0  20    6.40    7.10
  20  -2   0   -0.10    4.90
   0 -20  -2    9.00    8.80
   0 -20  -2    7.50    4.50
 -20  -2   0   20.90   34.40
  -2   0 -20    9.00    7.20
  -2   0  20    4.30    8.20
   2  20  -2  307.47   42.70
   2   2  20  281.77   39.50
  -2   2  20  366.06   38.20
 -20   2  -2  254.07   44.10
  -2  -2  20  280.17   37.10
   2  -2  20  347.77   38.40
   2  20   2  282.07   39.20
   4   0  20  286.47   32.20
 -20   0  -4  325.57   47.00
  -4 -20   0  220.98   29.10
   0  -4  20  236.38   32.50
   0  -4  20  250.07   28.20
   0  20  -4  270.77   40.20
  -2   4  20 1123.19  125.49
 -20   4  -2 1344.67  132.49
   4   2  20 1064.79  125.79
   2  -4  20 1151.48  122.89
   4 -20   2 1417.26  124.59
  -4  -2  20 1213.08  126.09
   4  -2  20 1277.67  123.79
  -4 -20   2 1097.29  123.79
 -20   2  -4 1212.88  133.79
  -4  20  -2 1237.78  133.29
  -2  -4  20 1125.99  125.99
   4  -2  20 1205.48  126.59
   2   4  20 1384.96  127.09
  -2  20   4 1018.50  131.39
 -20   4  -4 2896.41  281.37
  -4  -4  20 3069.19  274.27
   4  -4  20 2628.74  270.07
   4   4  20 2679.93  273.07
   4  20  -4 2360.96  275.97
   4  20   4 2765.32  272.37
  20  -4   4 2404.16  271.17
   4 -20  -4 2815.32  270.47
   4  -4  20 2910.41  273.97
  -4  20   4 2304.77  274.77
   0  -6  20  109.99   20.20
 -20   0  -6   69.79   28.40
   0  -6 -20  114.29   18.50
  -6 -20   0  107.69   16.10
  -6  20   0  130.29   29.90
   0   6  20  113.49   18.20
   6  20   0  153.18   21.50
 -20  -6   0  136.89   42.30
 -20   6   0  162.78   25.80
  -6   0 -20  114.99   18.50
  -6   0  20  111.19   19.60
   0 -20  -6  113.99   20.20
   6   0  20   79.39   19.80
  20  -2   6  176.18   26.90
 -20   6  -2  221.88   34.40
   2  -6  20  181.18   25.50
  -6  -2  20  178.48   24.90
  -2  -6 -20  148.19   21.90
  -2 -20   6  132.29   20.40
  -2   6  20  180.28   24.30
   2 -20  -6  141.99   23.20
  -6 -20  -2  187.88   21.30
 -20  -6   2  155.58   43.90
   6  20  -2  201.58   28.70
  20  -6  -2  194.48   22.30
   2  -6  20  135.99   19.30
  -2 -20  -6  171.28   26.60
   2 -20   6  148.39   19.90
  -6   2  20  131.69   23.20
  -6  20  -2  134.89   29.60
  -2 -20  -6  144.89   19.30
   2  20  -6  236.68   36.00
   2   6  20  191.78   23.90
  20  -6   2  205.18   23.00
 -20   6   2  162.28   27.50
 -20   2  -6  151.58   37.50
 -20  -6  -2  116.99   40.20
   6  -2  20  178.38   25.90
   6  20   2  136.69   22.90
  -2  -6  20  187.38   25.10
  -2  -6  20  173.28   20.00
  -6  20   4 1316.77  132.79
  -4  20  -6 1154.38  136.89
  -6  -4  20 1214.58  129.39
   4 -20  -6 1343.97  126.79
   4  -6  20 1275.17  130.19
  -6 -20  -4 1199.28  127.09
   6  -4  20 1166.58  129.49
  -4  -6  20 1317.17  129.69
  -6   4  20 1085.19  128.49
  -4 -20  -6 1169.18  126.09
   4  20  -6 1207.78  134.29
   4   6  20 1366.46  129.99
 -20   6   4 1094.19  127.89
   6  20   4 1394.26  129.09
   6   6  20  290.17   37.70
   6  -6  20  304.27   38.50
  -6  -6 -20  329.27   38.30
  -6  -6  20  291.37   37.70
  -6  20  -6  222.28   47.00
   6  20  -6  278.47   42.30
  -6 -20   6  328.57   35.40
  -6   6  20  333.07   37.20
   8   0  20  369.16   40.20
   0 -20  -8  324.67   35.00
  20   0   8  287.67   37.40
  -8   0  20  241.58   37.60
   0  -8 -20  333.07   37.80
   0  -8  20  362.26   40.60
 -20  -8   0  333.17   58.69
  20  -2   8    2.30    5.00
  -2  -8 -20    0.30    7.90
   2 -20  -8    0.60    4.20
  -2  20  -8    6.90   18.00
   8  20  -2    4.40    8.60
  -8   2 -20   -5.90    6.30
   8 -20   2    1.80    4.90
   2  -8  20    2.00    3.80
   2  -8  20    4.50   10.10
  -8 -20  -2   -3.70    4.20
 -20   2   8   23.10   29.10
  -8  20   2   -1.20   14.90
  -2   8  20    5.20    7.90
   8   2  20   -2.20    7.30
  -8  -2  20   -1.40    6.90
   2 -20  -8    0.00    6.70
  -2 -20   8    5.00    5.40
   2  20   8    3.00    8.30
  -8  -2  20   -0.10    6.60
   8  -2  20    2.70    3.80
  -2  20   8   -0.60    8.30
 -20   8   2    4.00   10.20
 -20  -2   8   -2.40   23.70
  -8   2  20    1.00    7.30
  20   2   8   -1.10    3.10
  -8  20  -2   -8.50   15.40
  -2  -8  20    2.40    8.20
  -2  -8  20    1.10    3.50
   2  20  -8   -9.20   14.30
   2  -8 -20    0.00    5.80
   2 -20   8    0.50    4.20
  -2 -20  -8    6.70    4.70
  -2 -20  -8    2.10    9.10
  20  -8   2    1.20    5.80
   8  20   2    0.70    6.60
   8  -2  20   -0.30    8.00
  -8 -20   2    2.90    6.00
 -20  -8  -2    7.70   23.00
  20   2   8  -10.10    7.70
   2   8  20    2.40    6.50
  -8   4 -20  365.36   39.60
 -20   8  -4  406.26   53.29
   8  20  -4  343.17   42.60
  -4  20  -8  278.47   50.49
 -20  -8   4  245.68   54.49
   4  20   8  352.56   39.90
  20  -4   8  296.07   37.60
   4  -8  20  310.97   41.30
  -4  20   8  381.06   40.50
  -4  -8  20  296.07   40.30
  20  -8   4  290.27   37.80
 -20  -8  -4  390.36   61.99
  20   4   8  371.36   41.20
  -8   4  20  294.17   39.00
   4  20  -8  357.86   48.00
   6  20   8   30.00   10.60
   6  -8  20   36.90   13.80
  -6  -8 -20   13.90   10.60
  -8 -20  -6   32.10    8.60
   8  20  -6   61.29   18.10
  20  -6   8   32.20   10.30
  -6  20  -8   89.19   27.40
   8   6  20   49.60   14.80
   8 -20   6   33.50    9.60
 -20   8  -6   38.10   23.60
  -8  -6  20   44.90   11.20
   6  20  -8   15.60   15.70
   8  -6  20   44.00   13.70
  -6 -20  -8   33.90    7.70
  -8  20  -6   23.30   21.80
 -20  -8  -6   37.30   28.30
 -20   6  -8   41.80   25.80
  -6  -8  20   37.60   12.80
  -6  -8  20   49.50   10.10
   6   8  20   37.90   12.50
  -8   6  20   51.89   13.70
  -6  20   8   60.79   15.30
  20  -8  -8  398.06   46.50
 -20  -8  -8  375.56   67.19
  -8  -8 -20  473.55   50.99
   8   8  20  350.96   49.20
   8  20  -8  460.25   56.09
   8  -8  20  472.05   52.09
   8  -8  20  451.85   46.50
  -8   8  20  345.57   47.60
  -8  20  -8  493.75   64.89
  -8  20   8  404.36   49.99
   8 -20  -8  474.75   46.30
 -20   8  -8  438.66   67.09
 -10 -20   0   22.80    9.60
 -10  20   0    9.10   16.70
  10  20   0   38.10   11.10
  20   0  10   55.39   15.60
   0 -20  10   48.30    8.70
   0 -10  20   35.90    7.30
   0 -10  20   28.70   12.50
   0  10  20   28.50   10.30
  10 -20   0   29.00    8.60
  10   0  20   34.30   12.30
   0 -20 -10   17.60   10.60
 -10   0  20   51.49   17.40
   0  20 -10   83.89   26.10
 -10 -20  -2  181.18   32.50
   2  20  10  278.47   31.80
 -20 -10   2  228.18   47.10
   2 -10  20  297.07   34.90
  20  -2  10  295.67   35.30
  -2  10  20  276.77   31.30
 -10  -2  20  176.38   34.00
  10   2  20  191.68   31.10
  20  -2  10  256.97   28.90
 -10  20   2  261.97   40.10
  -2  20 -10  215.18   44.40
  -2  20  10  188.88   30.90
  -2 -10  20  255.07   33.60
 -10 -20   2  259.37   30.80
 -10   2  20  241.28   31.60
  -2 -20 -10  182.68   31.60
  10  20   2  260.27   30.10
 -10  -2 -20  247.08   32.50
  20   2  10  272.47   33.50
  20 -10   2  225.18   29.50
  10  -2  20  261.67   32.70
 -20 -10  -2  235.38   48.00
  -4 -10 -20  755.72   86.69
 -10  -4  20  907.21   90.09
  20  -4  10  946.01   86.79
 -20  10  -4  911.71   98.19
  -4  10  20  676.13   85.59
   4  20  10  903.21   87.09
   4 -10  20  855.91   89.29
 -10   4  20  754.22   87.09
 -10  -4 -20  796.22   87.89
  -4 -10  20  680.43   89.79
  20 -10   4  850.31   86.29
   4  10  20  794.12   86.39
  10 -20  -4  760.02   85.59
 -20   4 -10  827.82  103.29
  10  20   4  764.72   85.29
 -10  20   6  124.39   23.80
   6 -10  20   81.99   14.00
   6 -10  20  112.09   22.10
 -10  -6  20  103.29   19.40
   6 -20 -10  117.39   14.30
 -20  10  -6  118.09   34.60
  -6  20 -10   83.39   29.80
   6  20  10  100.49   18.40
  -6  10  20   89.99   17.60
  10   6  20  116.19   21.00
  10  20   6  117.79   18.50
 -10  20  -6   68.19   28.10
 -10 -20   6   86.89   17.20
 -10   6  20  106.19   18.50
  -6 -10  20  114.39   22.10
  -6  20  10   69.39   18.60
   6  10  20  109.99   19.70
  10 -20  -6  114.19   14.70
  10  -6  20  103.29   21.90
  -8  10  20   10.00    8.10
 -10 -20  -8    4.90    5.30
  -8 -10 -20    0.20    7.40
  10   8  20   17.90   10.60
 -10  20   8    6.90   10.30
  -8  20 -10   23.30   22.70
   8 -10  20    7.30    9.70
   8 -20 -10   12.00    5.40
 -10  -8  20    6.20    9.10
   8 -10  20    3.90    4.80
 -20  10  -8   26.90   27.80
 -20  -8 -10   -4.10   23.70
   8  20  10   10.00    8.00
 -10  -8 -20    3.50    9.90
 -20 -10  -8   20.90   25.70
 -10   8  20   12.10    8.40
  -8 -10  20    8.40    7.10
 -10 -20   8    7.80    7.80
  -8  20  10    1.00    8.90
 -20   8 -10   18.90   25.90
   8  10  20   17.50    9.90
  20  -8 -10    5.70    4.00
 -10  20  -8    5.20   21.30
  10  20   8   11.60    8.10
  10  -8  20    9.40   11.30
  20 -10   8    5.30    6.70
 -10  10  20   -0.30    7.70
 -10 -10  20   13.40    8.70
 -20 -10 -10    3.10   25.00
  10 -10  20   12.80   12.10
 -20  10 -10   33.60   29.50
 -10  20 -10   -2.20   22.90
 -20 -10  10   26.20   22.30
  10  20  10    6.00    8.10
  20 -10 -10    7.20    4.80
 -10 -10 -20   15.60   10.20
 -10 -20  10    9.90    7.90
 -10  20  10    9.20    9.70
  10 -20 -10   21.90    7.20
  10 -20  10   13.60    6.70
  10  10  20    8.80   10.40
  10 -10  20   22.00    6.70
  20 -12   0  179.38   23.90
   0 -20 -12  172.38   26.00
   0 -12  20  173.68   27.90
   0  12  20  177.18   25.30
 -12   0 -20  186.08   27.30
 -12  20   0  188.68   35.90
  12   0  20  177.08   26.70
   0  20  12  198.18   25.70
   0  20 -12  170.78   39.70
 -20   0  12  142.99   45.20
 -20  12   0  206.28   34.60
  20   0  12  132.59   26.90
  20  -2  12  964.80   97.69
 -12 -20  -2  960.60   96.59
  -2  12  20  771.52   93.99
 -20 -12   2  898.51  108.59
   2  20  12  835.12   94.79
  20  -2  12  916.21   93.39
   2  12  20 1014.10   95.59
  -2 -12  20  865.61   92.49
   2  20 -12  968.70  106.49
 -12  -2 -20  913.91   96.99
 -20  -2  12  815.92  110.99
  -2 -20 -12  768.62   95.39
  20   2  12  868.31   96.59
  -2  20  12  935.41   95.49
   4 -12  20 2240.48  243.88
 -12  20   4 2214.98  245.68
  -4 -12 -20 2038.30  241.38
   4  20  12 2259.47  241.98
 -12  -4  20 2552.44  249.08
  20 -12  -4 2708.83  242.28
  -4  20 -12 2746.53  255.67
  12  -4  20 2434.16  240.38
 -12  -4 -20 2127.69  243.08
  -4  20  12 2050.49  241.78
 -12 -20   4 2549.15  243.98
  -4 -12  20 2471.75  244.38
  12  20   4 2548.84  241.38
   4  12  20 2077.19  241.58
  20   4  12 2633.04  243.98
  -6  12  20  715.23   73.69
   6 -12  20  600.04   75.99
  20  -6  12  696.83   73.09
   6  20  12  639.34   73.19
 -12  -6  20  745.23   79.19
   6  12  20  738.53   74.69
  12  -6  20  738.93   76.69
  -6 -12  20  575.34   78.29
  20 -12   6  690.13   73.39
 -12   6  20  752.42   74.79
  -6 -20 -12  675.63   76.49
  12 -20  -6  714.63   72.29
  12  -6  20  613.84   71.39
 -12  20  -6  658.23   86.09
  12  20   6  715.73   73.29
  -6  20  12  577.34   73.79
  12 -20   8  102.09   15.10
  12   8  20  136.29   21.80
  20 -12  -8  118.89   15.60
 -12 -20  -8   72.79   15.20
  -8  12  20   62.19   16.70
   8 -12  20  105.59   23.10
 -20  -8 -12   95.39   42.80
   8  20  12   98.39   18.20
  20  -8  12   98.79   16.30
 -20   8  12   62.49   36.80
 -20  12  -8  117.19   35.10
  -8  20 -12   56.19   29.20
 -12   8  20  114.99   18.80
  12  -8  20   99.69   22.10
 -12  -8 -20   76.39   20.90
  -8 -12  20  109.79   16.60
   8  12  20  106.59   17.80
 -20 -12  -8  139.39   40.00
  12  20   8   88.29   18.00
 -20   8 -12   55.29   33.80
 -12  20  -8   38.30   27.40
 -12 -20   8   73.09   17.70
  12  -8  20   99.99   14.30
  20 -10  12  409.16   47.30
  12  10  20  362.26   49.10
 -20 -10 -12  394.16   72.49
 -10  20 -12  494.15   69.19
 -20  12 -10  427.06   69.19
  10 -12  20  439.36   52.59
  20 -12  10  401.26   47.00
 -20  10 -12  314.87   67.29
 -12 -20  10  449.76   49.10
  12 -10  20  439.96   51.99
  12  20  10  348.67   47.50
 -20 -12 -10  458.95   67.99
 -10 -12  20  482.75   48.90
  20 -12 -12 1017.60  102.09
  12  20  12 1002.50  103.39
  12  12  20  900.81  104.29
   0 -20  14   18.80    6.60
   0 -20 -14   17.60   10.20
   0  20  14   29.50   10.10
   0 -14 -20   49.10   14.00
 -14   0 -20    5.30   11.10
  14   0  20   21.70   11.30
 -20  14   0   18.20   15.90
   0  14  20    9.30    8.80
  14 -20   0   21.70    7.90
  20   0  14   15.80   12.40
  20   0  14   15.30    6.50
 -20   0  14    1.40   24.10
 -14  20   0    0.20   16.20
 -14   0  20   34.80   19.20
   0  20 -14    0.10   20.30
 -14  20   2  376.86   57.09
  20  -2  14  463.55   49.40
  14   2  20  390.66   51.99
 -20   2  14  485.25   72.49
  20  -2  14  509.35   54.59
 -20  14  -2  523.15   62.69
 -14  -2  20  542.55   80.39
   2 -20 -14  417.36   50.49
  20   2  14  416.26   48.30
 -14   2  20  351.06   62.99
   2  20 -14  392.76   62.79
  14 -20  -2  524.55   49.90
  14  -2  20  397.66   48.50
  20   2  14  421.16   53.19
  -2 -14  20  519.25   48.80
   4 -20 -14  991.10  113.69
  -4  14  20 1188.28  115.19
   4 -14  20 1046.10  112.39
 -14  20   4 1000.80  118.59
   4  20  14  962.40  114.09
  20   4  14 1150.18  116.89
  14  -4  20 1008.20  113.19
   4  20 -14 1031.60  125.39
  14 -20  -4 1219.88  114.19
 -20 -14  -4 1194.08  130.49
  14  -4  20 1241.88  117.79
 -20  14  -6  125.59   36.10
   6  14 -20  125.49   38.60
  20  -6  14  119.09   19.50
  20 -14  -6  115.59   19.30
  -6  20 -14  202.38   46.10
  14   6  20   96.69   22.30
 -14  -6  20  129.29   28.70
   6  20  14  173.68   23.30
 -20  -6 -14   62.39   47.50
  20   6  14  152.18   25.20
  14  -6  20  139.79   25.60
 -14  -6 -20   96.89   24.30
  -6  20  14  131.09   21.80
 -14 -20   6  173.08   25.50
 -14  20  -6  144.29   38.50
   6  14  20  150.58   23.00
   6  20 -14  204.18   44.60
  14 -20  -6  161.78   20.30
   8  20  14   -1.10    8.40
  -8 -20  14   -1.50    6.40
 -14  20   8   -3.10    9.00
  -8 -14 -20   -1.20    9.00
  -8  20 -14  -12.80   24.00
 -20  14  -8   19.40   23.90
  20  -8  14   -0.80    6.20
   8  14 -20   -9.60   29.90
  14 -20   8    1.00    5.40
 -20   8  14   14.50   26.40
 -14 -20  -8  -11.20   10.30
   8 -14  20   -0.80    4.10
  -8  14  20   -2.00    7.90
  14   8  20    1.50    9.60
 -14  -8  20    2.80   12.80
  20 -14   8   -2.10    6.00
  20   8  14    1.10   10.50
 -14 -20   8   -1.20    9.70
  -8 -20 -14   -8.90   10.50
   8  14  20   -4.20    8.30
  14 -20  -8    0.10    5.40
 -20   8 -14   -3.80   29.60
 -20 -14  -8    3.40   21.50
  -8 -14  20   -2.60    5.70
 -20  14   8   -2.00    7.60
 -14  20  -8   -1.60   22.60
 -14   8  20   -0.70    8.20
  14  -8  20    2.00   10.20
  14  -8  20   -1.30    5.00
  -8  20  14    0.90    8.30
 -14  -8 -20   -7.10   10.40
  14  20   8    0.20    8.90
  10 -14  20  193.48   25.50
 -10  20 -14  246.58   53.79
 -14 -10  20  226.98   33.30
 -10 -14 -20  232.08   32.40
 -20  14 -10  286.97   53.89
 -14  10  20  177.18   28.90
 -20 -10  14  205.08   39.80
  14 -20 -10  250.37   27.90
  20  10  14  192.58   32.40
  14 -10  20  179.48   32.20
 -20  10 -14  156.18   48.70
 -10  20  14  178.48   28.60
  20 -14  10  234.08   27.80
 -20 -14 -10  219.68   44.90
  14  20  10  257.87   30.80
  12  20  14  759.92   83.49
 -14 -12  20  796.22   86.09
 -20  12  14  597.34  105.49
  20 -12  14  861.51   82.89
 -12  14  20  723.93   82.99
 -20 -14  12  799.32   92.19
 -14 -12 -20  762.82   85.99
  12  14  20  664.63   83.29
 -14  20 -12  860.01  102.59
  14 -12  20  815.92   81.49
  20 -14  14  533.15   53.39
 -14  20 -14  449.36   74.99
 -14  14  20  515.15   54.89
  14  14  20  382.96   54.09
 -20  14 -14  437.36   76.29
   0  16 -20  169.28   54.79
  20   0  16  256.07   35.50
  20   0  16  271.27   29.50
   0 -20 -16  222.98   31.90
   0  20 -16  193.48   47.70
  16   0  20  229.88   33.70
   0  20  16  229.08   32.20
 -20  16   0  287.17   42.20
   0 -16  20  273.47   28.80
   0  16  20  266.37   32.80
 -16  20   2    3.80   14.20
 -16  -2  20   -2.10   16.00
  -2 -16 -20    1.90    8.20
   2  16 -20   -3.70   26.90
  -2 -20  16   -0.30    4.50
 -16 -20  -2   -4.50   11.70
 -20 -16   2   -4.40   18.90
 -20  16  -2    5.00   17.00
   2  20  16   -1.90    6.70
   2 -20 -16    2.80    8.20
  20  -2  16    3.40   10.50
  20  -2  16    2.70    5.30
  -2  20 -16  -13.50   20.50
 -20   2  16  -10.10   23.70
  16   2  20    2.70    9.70
  -2  16  20    1.80    8.40
   2 -16  20    1.00    4.30
   2  16  20   -0.10    8.70
   2 -20  16    2.00    4.70
   2 -16 -20    0.80    6.10
 -20  16   2    0.40   14.60
  20   2  16   -1.30   10.20
 -20  -2  16    6.20   22.00
  -2 -20 -16   -3.30    7.60
  -2  16 -20  -17.80   25.90
 -16  20  -2    7.00   17.60
  20   2  16   -0.40    3.30
 -16 -20   2   -2.40   11.90
 -16  -2 -20    2.70   10.80
   2  20 -16   21.50   23.40
 -16   2  20   26.60   21.50
  -2  20  16    2.50    8.80
  16  -2  20   -2.10    9.60
   4 -20 -16  127.49   19.60
 -16  20   4  108.09   25.40
  -4 -16 -20   94.29   19.80
 -20  16  -4  101.29   29.80
  16   4  20  140.99   22.80
  20  -4  16  104.49   23.90
  -4  16  20  104.39   19.80
 -16  -4  20  131.59   30.50
   4  16 -20   85.29   35.70
  16  -4  20  134.99   23.50
 -20  16   4  141.99   26.60
   4  20 -16   91.99   33.20
  20   4  16  129.79   22.80
 -16  20  -4   67.79   27.20
 -16  -4 -20   97.19   23.50
  16 -20  -4   89.99   16.40
  -4 -20 -16   68.49   20.10
 -20  16  -6    4.90   22.40
 -16  -6  20    8.30   15.80
  -6  20 -16   -5.40   24.60
   6  20  16   -1.00    8.20
 -20   6  16    8.60   25.70
   6  16 -20    3.80   27.50
  16 -20   6    1.30    5.80
  -6 -16 -20    2.90    9.60
 -16 -20  -6    2.70   11.50
 -16  20   6    0.10   11.20
  20  -6  16   -0.40    5.60
  -6  16  20    2.90    8.50
  16   6  20   -5.70    8.70
   6  20 -16    0.10   25.50
  -6  16 -20   -5.50   28.10
  20   6  16    5.00   10.40
 -20  16   6   10.10   11.90
  -6  20  16   -0.70    8.50
 -20 -16  -6    6.30   20.30
  -6 -20 -16   -5.30    9.10
 -16  20  -6    0.30   21.60
  16  -6  20    0.00   10.30
 -16  -6 -20   -1.10   10.80
   6  16  20    6.10    9.00
  16 -20  -6    0.40    6.40
  16  -6  20    0.40    5.20
   8 -16  20  275.77   30.40
  -8 -16 -20  307.77   36.20
  16   8  20  218.18   34.60
  -8  20 -16  233.98   55.89
  20  -8  16  271.87   32.40
 -20   8  16  211.78   65.59
   8  20  16  198.58   32.40
 -16  -8  20  289.57   41.70
 -20  16   8  304.37   34.60
  20   8  16  240.18   37.00
 -16  20  -8  184.68   47.60
   8  16  20  273.57   34.40
  16 -20  -8  295.97   32.60
  -8  16 -20  190.88   58.79
  20 -16   8  241.38   31.70
  16  -8  20  301.47   32.40
  16  -8  20  219.88   36.10
 -10  16  20    4.40    9.30
 -20  10  16    6.30   31.70
  20 -16 -10   24.50    8.00
  10  20  16   45.30   12.80
 -16  20  10   11.90   11.10
 -10 -16 -20   15.10   11.50
  16  10  20    5.50   10.10
  10 -16  20   26.00    7.70
 -20  16 -10   11.10   26.90
 -20 -16  10   37.80   20.60
 -10 -20  16   40.90   11.60
 -10  20 -16   32.80   31.10
 -16 -10  20    1.30   12.60
  10  16  20   18.50   11.60
 -20 -16 -10   39.00   24.20
  20  10  16   13.90   12.60
 -16  20 -10   17.60   26.30
 -20  16  10   23.10   12.30
 -10 -20 -16    8.10   12.30
 -10 -16  20    1.40    7.30
 -16 -10 -20   -0.20   11.80
  16 -20 -10   35.00   10.70
 -16  10  20   30.40   13.40
 -10  20  16   16.20   10.00
 -20  10 -16   23.30   35.40
 -10  16 -20   11.70   32.10
  16 -10  20   17.30    8.20
  16 -10  20   18.40   12.90
 -12  20 -16  108.59   41.40
  20 -16 -12  187.68   22.60
  16  12  20  186.68   27.20
 -12 -16 -20  130.39   27.10
 -20  12  16   91.59   54.79
 -20  16 -12  264.77   52.29
 -16 -12 -20  169.38   29.00
  12  16  20  145.99   25.40
 -20 -12  16  153.18   32.80
 -20  12 -16  186.38   50.29
 -20  16  12  159.68   25.70
 -12  16 -20  185.68   51.39
 -12 -16  20  184.78   23.80
 -12 -20 -16  130.99   28.00
 -16 -20  12  108.29   23.80
 -20  16 -14   27.90   30.90
 -16  20  14   19.30   10.80
 -14 -16 -20   10.50   12.90
  14  20  16   21.70   12.60
 -14  20 -16  -13.00   29.10
 -14  16  20   26.70   11.50
  16  14  20   15.50   11.90
 -16  14 -20    8.60   30.50
  14 -16  20   18.60    7.00
  20 -14  16   20.20    8.80
  16 -20  14   18.70    7.40
  14  16  20   29.90   12.80
 -20  14 -16    4.00   30.80
  16  20  14   16.50   13.30
 -14  16 -20   -6.80   33.10
 -16 -20  14   39.90   13.70
 -16  14  20    4.20   10.80
  14 -20  16   31.70    8.60
 -14  20  16   12.00   10.80
 -20 -14  16   -1.10   15.00
 -16 -14 -20   -0.60   11.60
 -20  16  14   40.50   14.10
 -16  20 -14   13.80   28.20
  20 -16  14   34.60   10.70
  16 -16  20   62.29   12.10
  16  16  20   78.29   21.10
 -16  16 -20   49.30   38.70
  20 -16  16   78.79   14.30
 -20  16 -16   93.99   40.30
 -16  20  16   45.10   14.50
 -16 -16 -20   45.70   16.30
  16 -20  16   86.69   13.20
   0  20 -18  334.47   58.19
 -20  18   0  325.17   46.70
  20   0  18  279.97   40.30
   0 -20 -18  350.96   38.10
 -20 -18   0  256.37   46.10
   0 -18 -20  303.57   36.90
   0  18 -20  327.87   60.19
   0  18  20  310.87   38.30
  18   0  20  251.07   39.20
 -18  20   0  335.47   47.10
  20  -2  18    2.70    5.40
 -20  18  -2   -7.00   16.10
   2 -18  20    3.50    5.00
 -18  -2  20    0.80   16.40
 -18 -20  -2   -5.00   13.30
  -2 -18 -20    1.00    7.70
  -2  20 -18   -8.10   24.40
 -20 -18   2   11.30   17.90
 -20   2  18    1.40   22.60
  18   2  20   14.00   11.60
 -18  20   2   14.90   16.00
  -2  18  20   12.00    9.90
  20 -18  -2    5.70    7.30
   2 -20 -18    8.60    9.10
   2  18 -20   -0.20   27.10
  20  -2  18   12.60   11.90
   2  20  18   19.60   10.80
  18 -20   2    1.50    6.90
   2  18  20   18.40   10.00
 -20  18   2    3.70   14.60
  20   2  18    6.90   12.10
  18  -2  20    6.50   11.20
 -20  -2  18   20.10   23.40
  -2  20  18   -2.10    9.70
  -2  18 -20    5.60   27.50
  -2 -18  20    1.90    4.90
 -18 -20   2    1.50   14.10
 -18  20  -2   18.90   18.30
 -18  -2 -20    4.10   12.20
  -2 -20 -18   12.80    9.10
   2 -18 -20    6.20    8.60
 -18   2  20   20.40   22.90
 -20 -18  -2   15.70   19.40
   2  20 -18    5.70   24.90
  18 -20  -2   20.20    8.90
  18   4  20  200.78   29.60
   4  20  18  205.48   27.70
   4  18 -20  219.88   50.79
  -4  20 -18  197.08   50.09
 -20   4  18  100.49   41.30
 -18 -20   4  221.88   34.10
  20   4  18  205.38   30.70
  -4 -20 -18  141.99   26.10
 -18  -4 -20  194.58   31.80
 -20  18   4  157.88   30.20
  18  -4  20  230.98   31.40
 -18  20  -4  246.08   40.90
 -20 -18  -4  140.29   35.70
   4  20 -18  284.47   53.69
  18 -20  -4  177.38   24.80
  -4  20  18  202.48   27.30
   4 -20  18  159.58   22.50
  -6 -20  18    3.50    6.40
  20 -18  -6    7.90    7.40
 -18  20   6    6.10   11.80
 -18 -20  -6    3.30   13.70
  -6  20 -18   15.00   28.10
   6  18 -20   16.00   32.90
  18 -20   6    2.30    6.70
  20  -6  18   11.10    7.20
 -20 -18   6    2.90   16.60
   6 -18  20    7.10    5.90
 -20   6  18    8.10   25.80
  18   6  20   10.60   11.10
 -20  18  -6    6.50   21.80
  -6 -18 -20    5.30    9.70
  -6  18  20   -1.50    8.30
   6  20  18    4.40    9.00
  20  -6  18    4.80   12.50
 -18 -20   6    5.80   13.70
  18  -6  20    3.30    6.40
   6  18  20    7.60    9.10
 -20 -18  -6    9.50   19.70
  18 -20  -6    8.00    7.20
  -6 -20 -18   -5.90    9.50
  18  -6  20   -1.20   11.30
 -18  20  -6    4.60   18.70
  20 -18   6    3.30    7.20
  -6  18 -20   -3.80   28.00
  -6 -18  20    1.40    6.70
 -18  -6 -20    5.30   11.80
  20   6  18    3.90   10.70
  -6  20  18    6.10    8.60
   6 -20  18    7.30    6.00
   6  20 -18   14.50   27.40
 -20  18   6   -0.70   10.90
  18   8  20  156.38   27.50
  -8  20 -18  104.39   38.90
  -8 -18 -20  180.58   25.70
 -18  20   8  180.48   24.10
  18 -20   8  157.08   20.40
   8 -18  20  142.69   18.70
 -18 -20  -8  155.18   33.40
  -8  20  18  129.99   22.50
 -18 -20   8  178.78   28.10
 -20  -8  18  150.38   34.20
  -8 -18  20  109.79   19.60
  -8  18 -20  146.99   45.00
  20   8  18  118.99   26.50
 -18  20  -8  156.58   41.50
  18 -20  -8  100.89   19.70
 -20  18   8  175.28   24.70
  -8 -20 -18  129.69   25.10
  18  -8  20  116.29   26.80
 -10 -20  18    0.40    6.90
 -10  20 -18  -16.80   27.60
 -20 -18  10   -0.10   14.10
  20 -18 -10   -0.30    5.90
 -20  18 -10    0.10   24.10
  10 -18  20    3.70    5.30
  10  20  18    4.40    9.00
  18 -20  10    1.20    5.60
 -10  18  20   -2.50    9.00
 -10 -18 -20    4.30   10.30
 -18  20  10    5.70    9.80
  18  10  20    8.10   12.30
  18 -10  20    1.40    6.50
 -10  20  18    3.70    8.50
 -20  10 -18  -12.60   31.40
 -10 -20 -18    3.10   11.80
  10  18  20   -2.80    8.90
 -18  20 -10   -1.80   25.20
 -20 -10  18    5.40   16.80
  20  10  18    7.40   13.10
 -10  18 -20   17.00   32.40
 -20  18  10    5.50   10.00
 -18 -10 -20   -2.30   11.30
  18 -20 -10    5.40    6.80
 -10 -18  20    5.30    7.60
  12  20  18  135.99   23.60
  18  12  20  145.59   26.20
  20 -18 -12  147.79   20.50
 -12  20 -18   81.19   40.90
 -18  20  12  159.28   25.00
  18 -12  20  144.59   21.00
 -12  20  18  131.09   22.80
 -18 -12 -20   99.89   27.00
 -12 -18  20  172.78   22.60
 -12  18 -20  217.68   57.39
 -20  18  12  140.79   24.70
  20  12  18  160.68   29.50
 -18  20 -12  128.39   39.00
 -14 -18 -20   29.00   15.40
  20 -14  18   42.50   11.60
  18  14  20   49.30   16.90
 -18  20  14   18.70   11.20
 -20  18 -14   36.90   33.20
 -14  18  20   46.90   14.30
 -18  14 -20   17.40   34.80
 -14  20 -18   14.60   33.00
  14  20  18   33.40   14.90
  14  18  20   57.89   15.90
  14 -20  18   24.00    8.20
 -18  20 -14   46.00   32.00
 -20  14 -18   83.99   39.40
 -14  18 -20    1.10   33.50
 -18 -14 -20   34.80   15.90
 -20 -14  18   22.40   17.50
  16 -18  20   76.49   13.10
 -18  20  16   94.09   21.90
 -16  18  20   43.70   15.70
 -20 -18  16  101.69   22.50
 -16 -20  18   68.59   16.30
 -16  20 -18   28.20   36.00
 -18  16 -20   77.49   41.40
 -16 -18 -20  112.59   25.00
  16  20  18   81.69   20.30
 -20  18 -16   90.19   46.30
  18  16  20   57.69   18.90
 -16  18 -20  108.49   43.20
  16  18  20   67.49   20.60
 -18  16  20   78.29   21.90
 -18 -16 -20  117.79   25.90
 -18 -20  16  110.79   19.60
 -18  20 -16  190.18   52.19
  18 -16  20   76.39   14.30
 -16 -20 -18   56.49   20.00
 -20  18 -18   53.99   37.00
 -18 -18 -20   24.90   16.30
 -18 -18  20   53.69   15.40
 -18  18 -20   68.89   39.00
 -18  20 -18   67.19   37.60
 -18  20  18   76.19   19.90
  18 -20  18   40.30   10.50
  18 -18  20   57.69   11.90
  18  18  20   43.60   16.80
 -20   0 -20  -13.00   11.30
 -20   0  20   -2.20   19.90
 -20  20   0   -9.20   14.90
   0 -20 -20    0.10    8.00
   0 -20  20   -4.20    4.20
   0  20 -20    9.60   26.80
   0  20  20    0.60    9.20
  20 -20   0   -0.60    7.00
  20   0  20   -5.20   11.10
 -20  -2  20  263.47   52.09
  -2  20 -20  291.97   63.29
  -2  20  20  350.56   41.90
   2  20 -20  452.05   67.89
   2  20  20  331.07   41.20
  20  -2  20  294.97   43.60
  20   2  20  381.56   45.50
 -20  -4  20 1296.07  142.39
  -4 -20 -20 1090.89  129.29
  -4  20  20 1235.68  130.59
   4  20 -20 1213.08  148.59
  20  -4  20 1404.96  134.49
  20  -4  20 1339.67  129.69
  20   4  20 1119.99  131.69
 -20  -6  20  336.67   47.60
 -20  20  -6  254.67   49.10
 -20  20   6  278.87   38.30
  -6  20  20  234.88   34.90
 -20 -20  -8  138.19   35.90
 -20 -20   8   78.99   24.30
 -20  -8  20  135.99   30.50
 -20  20  -8   74.19   30.40
  -8 -20 -20   72.69   20.20
  -8 -20  20   69.09   15.80
  -8  20 -20  162.98   45.10
  -8  20  20  108.59   21.30
   8 -20  20  106.49   14.80
  20   8  20  120.09   25.30
 -20 -10  20  421.56   60.59
 -20  10 -20  322.67   78.49
 -20  20  10  472.35   55.09
  10  20  20  485.25   54.99
  20 -20  10  574.24   53.89
  20 -10  20  428.36   52.99
  20  10  20  473.95   58.39
 -20  12 -20 1042.40  120.69
 -20  20  12  889.41   94.09
 -12 -20 -20  721.33   93.79
  12  20  20  895.41   94.59
  20 -20 -12  859.61   91.59
 -20 -20  14  348.37   42.80
 -20 -14  20  313.17   47.70
 -20  14 -20  336.77   74.19
 -14 -20 -20  293.07   42.90
 -20 -16 -20   35.50   16.70
 -20  16 -20   39.70   37.00
 -20  20 -16   39.50   33.50
 -20  20  16   35.40   13.90
 -16 -20 -20   11.20   15.30
 -16 -20  20   25.90   10.50
 -16  20 -20   64.89   38.50
 -16  20  20   34.70   14.40
  16 -20  20   32.20    9.40
  20 -16  20   56.49   12.50
 -20 -20  18   38.50   13.20
 -20 -18 -20   21.30   17.00
 -20  18 -20   20.90   35.70
 -20  20 -18   60.09   36.10
 -20  20  18   25.00   15.20
 -18 -20 -20   19.50   15.40
 -18 -20  20    5.60    9.10
 -18  20 -20    8.50   33.40
 -18  20  20   30.10   13.30
  18 -20  20   14.20    7.30
  20 -20  18   23.10    9.00
 -20 -20 -20  293.47   40.30
 -20  20 -20  314.77   62.69
  20 -20  20  204.98   29.20
  -1 -21   1   49.70    9.00
  -1  -1  21   47.60   17.60
  -1   1  21   67.49   16.70
  -1  21  -1   60.29   20.60
  -1  21   1   62.59   18.30
   1 -21  -1   46.90    9.00
   1 -21  -1   39.40   12.80
   1  -1  21   39.20   12.90
   1   1  21   61.49   15.80
   1  21  -1   65.39   19.40
   1  21   1   20.50   14.60
  21  -1  -1   47.40    9.80
   1  21   3  452.05   54.29
   3   1  21  538.75   54.29
  -3  -1  21  536.55   53.69
   1 -21  -3  467.35   50.19
  -1   3  21  429.76   52.19
   1 -21  -3  488.05   53.29
   3 -21   1  548.25   51.19
   3  21  -1  367.66   55.79
   1   3  21  549.65   54.19
  -1 -21  -3  438.16   49.50
  -1 -21  -3  382.36   53.29
   3  -1  21  488.65   53.89
  21   1   3  388.26   49.90
  -3  -3  21 1795.62  184.18
  -3  21   3 1740.83  186.88
   3  -3  21 1536.55  183.48
   3   3  21 1810.42  184.08
 -21   3  -3 1910.51  190.78
  21  -3   3 1937.01  182.18
   3  21  -3 1759.12  187.98
  -1  -5 -21  264.47   33.80
  -1   5  21  298.07   36.20
   1  -5  21  316.37   37.40
 -21   5  -1  287.67   41.50
   5 -21   1  281.67   33.30
 -21  -5   1  378.36   61.59
  21  -1   5  234.38   32.50
   5   1  21  286.27   36.30
  -5  21  -1  369.36   46.40
   5  -1  21  348.17   38.00
  -1  -5  21  321.97   37.40
 -21   1  -5  322.07   51.99
 -21  -5  -1  204.68   54.19
   5  21   1  271.57   36.60
  -5   1  21  270.67   35.90
  21   1   5  294.57   33.20
 -21  -3  -5 1634.14  212.28
  21  -3   5 2054.79  194.18
   3  -5  21 1868.01  195.98
  -3  21  -5 2084.39  203.28
   5   3  21 1943.01  196.28
  -5  21   3 2023.20  199.98
  -5  -3  21 1576.74  194.98
  -3   5  21 1887.31  195.58
   3   5  21 1923.41  195.78
  -3  21   5 2195.38  198.38
  -5 -21   3 1750.52  193.48
  -5   3  21 2148.98  197.18
   5  -3  21 1879.41  192.28
 -21   3  -5 1639.64  202.88
  -3 -21  -5 1754.52  192.38
   5  -3  21 2058.99  196.78
  -5 -21  -5 2579.14  252.37
  -5 -21   5 2839.32  253.27
  -5   5  21 2631.04  254.77
  -5  21  -5 2336.57  260.87
   5 -21  -5 2624.74  252.27
   5  -5  21 2503.75  255.07
   5   5  21 2383.06  254.47
   5  -5  21 2050.69  251.17
  -7   1 -21   74.39   15.90
  21  -1   7   97.79   14.00
 -21   1   7   91.49   38.50
  -1  -7 -21  107.39   17.20
   1 -21  -7   80.79   18.10
   1  -7  21   92.59   19.30
   7  21  -1   73.59   19.00
   1  21   7   80.79   18.00
 -21  -1  -7  146.99   43.30
 -21  -7   1   51.69   31.00
  -7  -1  21   92.89   18.30
   7   1  21   82.49   18.30
  -7  21   1  107.89   27.50
  -1  -7  21  105.49   12.80
   7  21   1  108.89   17.20
   1  21  -7  120.09   29.60
 -21   7   1   85.29   22.50
  -7  -1 -21   73.49   16.90
  -7 -21   1  108.29   15.00
  21  -7   1   83.29   15.10
  -7   1  21   99.39   18.20
  -1 -21  -7  113.59   20.00
   1   7  21   82.49   17.80
  -1  -7  21   89.09   18.90
   7  -1  21   62.99   18.30
 -21   1  -7  147.09   39.30
  21   1   7   65.39   12.60
   3  -7  21  326.77   41.80
  -7  -3  21  388.96   42.90
  -7  -3  21  331.17   38.70
  -7   3 -21  385.86   40.30
   3 -21  -7  387.06   37.90
   3 -21  -7  298.57   39.10
   7   3  21  334.57   41.60
  -3 -21   7  285.67   37.90
  -3   7  21  327.87   40.50
 -21   7   3  380.16   42.80
   7  21   3  287.27   39.50
  -3 -21  -7  332.77   42.60
  -7   3  21  410.86   46.80
   7   5  21  449.86   54.99
   5  21   7  454.85   54.49
   5  -7  21  456.95   51.79
  -7 -21  -5  507.85   52.69
  -7  21   5  516.05   58.99
   5  -7  21  430.46   54.79
  -7  -5  21  444.06   54.89
  -7  -5  21  458.85   52.89
   5 -21  -7  436.86   52.29
  21  -7   5  549.25   54.29
 -21  -7  -5  489.55   75.49
   5 -21   7  528.75   52.69
   7  -5  21  452.65   55.79
  -5  -7  21  531.55   56.09
  -5  -7  21  540.85   53.09
   5   7  21  400.56   54.69
   7 -21  -5  553.44   52.49
  -7   5  21  486.25   55.29
   7  -7  21   22.40    7.10
   7  21   7   49.90   13.10
  21  -7   7   37.20   10.70
  -7 -21   7   24.40    8.50
 -21   7  -7   46.30   40.90
  -7 -21  -7   26.80    8.00
  -7  -7 -21   14.50    9.80
  -7  -7  21   36.70   12.70
  -7  -7  21   32.70    9.60
  -7   7  21   17.70    9.10
  -7  21  -7   88.79   28.00
  -7  21   7   25.20   12.90
   7  -7  21   22.80   12.90
   7   7  21   35.50   11.10
   7  21  -7   40.50   17.20
  21  -7  -7   36.40    9.00
 -21  -7   7   21.80   24.90
 -21  -7  -7   -4.10   23.20
  -9  -1  21    1.70    8.40
  21  -1   9    1.50    4.70
  21  -9  -1    5.20    6.20
   1 -21  -9   -2.00    8.00
  -9 -21  -1    4.10    5.90
   1  21   9    2.00    9.00
   9 -21   1    1.70    5.00
  -9  -1  21    3.50    7.50
 -21   1   9    0.50   26.70
   9   1  21    4.10    9.30
  -1   9  21   -4.40    7.90
   1  -9  21   -1.30    3.10
  -1  21  -9   -5.70   17.60
  -9  21   1   -1.50   14.10
   1  -9  21   -2.20    9.20
  -1  -9 -21   -0.80    5.80
  -1 -21   9    0.70    4.30
   9  21  -1    2.70    7.80
  -9  -1 -21   -1.10    8.20
  21   1   9    1.50    3.50
   9  -1  21   -4.20    9.20
  -1  -9  21    1.80    9.00
   9 -21  -1    4.90    5.30
   1  -9 -21    0.20    7.40
  -1 -21  -9   -4.50    8.70
   1   9  21    1.80    8.10
   9  21   1   -0.30    7.40
   1 -21   9    0.40    3.80
  -1  -9  21    4.20    4.00
  21   1   9   -7.10    9.10
  -9   1  21    1.40    9.30
 -21  -1   9   -5.10   24.10
  -1  21   9   -2.20    8.30
  -9  21  -1   -0.20   16.50
 -21  -9  -1  -13.40   21.80
   1  21  -9    0.00   15.70
  -9   3 -21  442.36   46.70
   3 -21  -9  395.76   43.40
 -21   3   9  290.27   66.49
   3  -9  21  417.06   44.00
  -9  -3  21  429.46   47.50
  -3  21  -9  426.46   58.19
   9  21  -3  366.36   47.10
 -21  -9  -3  492.15   69.69
   3   9  21  352.06   46.80
   9  -3  21  400.96   48.00
   3  21  -9  433.36   56.49
  -9  21  -3  307.27   54.09
  -3  -9  21  466.45   49.80
  -5   9  21  281.47   40.10
  -5  21  -9  274.07   52.39
   5  -9  21  315.07   43.60
   5  -9  21  386.16   39.00
  -9 -21  -5  363.36   39.60
   9   5  21  289.17   41.70
  -9  -5 -21  346.77   42.40
  21  -9   5  291.27   39.70
  -5  -9  21  328.57   43.30
   5   9  21  393.86   43.20
  -5 -21  -9  430.56   45.60
  -9   5  21  422.86   43.30
  -5  21   9  379.16   42.70
  -7   9  21    2.90    8.00
  -7  -9 -21    4.50    9.00
  21  -7   9    4.10    6.40
   9   7  21    6.80    9.30
   7  21   9    3.30    8.00
 -21   9  -7   17.00   23.30
  -7  21  -9   -4.40   18.70
 -21  -7  -9    1.30   25.10
   7 -21  -9    4.60    5.20
   7  -9  21    7.20    4.70
  -7 -21   9    9.90    6.90
 -21  -9   7   -2.80   21.30
  -9 -21  -7    8.80    5.70
  -9  21   7    5.70   11.60
   7  -9  21    4.00   10.60
  -9  21  -7   -1.00   20.70
   9  21   7    3.50    7.40
  -9 -21   7    8.90    7.50
 -21  -7   9   -1.10   20.90
   9  -7  21   13.00   11.60
  -7  21   9   -0.40    8.80
   7 -21   9    2.40    5.40
   9 -21  -7    1.10    3.60
  -7  -9  21    2.00    6.00
   7   9  21    6.90    9.40
   9  -7  21    9.00    5.30
 -21  -9  -7    3.40   24.10
 -21   7  -9    7.30   24.80
   7  21  -9    3.00   14.80
  -9  -7 -21   15.40   10.70
  -9   7  21    4.80    7.90
  -9   9  21   34.40   10.70
  -9  21  -9   52.49   22.90
 -21  -9  -9    5.90   25.70
 -21  -9   9   -0.40   19.80
 -21   9  -9   21.40   28.10
  -9 -21   9   32.20   10.00
  -9  -9 -21   26.10   10.80
  -9  21   9   11.50    8.30
   9 -21  -9   16.80    7.50
   9 -21   9   23.80    7.90
   9  -9  21   23.30   13.00
   9  21   9   36.00   10.50
   9   9  21   21.70   11.20
 -11   1 -21  226.18   30.80
  -1 -11 -21  277.57   30.30
 -11 -21  -1  213.48   29.20
  11   1  21  217.68   31.60
 -21 -11   1  189.78   46.50
 -11  21   1  268.97   40.10
   1 -11  21  215.38   32.70
   1 -11  21  214.68   26.30
  21  -1  11  297.47   35.30
  -1  21 -11  251.87   44.10
 -11  -1  21  253.17   34.60
  -1  11  21  186.78   29.10
   1  11  21  217.08   29.10
  -1 -11  21  262.77   33.50
  21   1  11  225.98   33.00
  11  -1  21  203.38   31.10
 -21 -11  -1  229.68   48.80
 -11  -1 -21  226.38   31.40
  21 -11   1  266.87   29.80
 -21  -1  11  144.99   48.70
   1 -11 -21  196.28   29.20
   1  21 -11  294.47   44.80
   3 -11  21 1484.85  149.39
   3 -11  21 1379.66  144.49
 -11 -21  -3 1392.36  146.59
 -11   3 -21 1602.34  148.09
 -11  21  -3 1275.97  153.78
  11  -3  21 1558.74  146.29
  -3 -11  21 1370.86  144.79
   3  11  21 1404.66  146.99
 -21  -3  11 1175.18  160.98
  11 -21   5 1543.05  139.19
   5 -11  21 1265.07  141.89
  -5  11  21 1388.36  139.99
  11   5  21 1316.67  140.59
   5  21  11 1343.87  140.19
   5  21 -11 1388.16  149.39
  11  -5  21 1368.76  141.89
  -5 -21 -11 1392.26  142.69
  -5 -11  21 1347.87  142.09
   5  11  21 1502.65  141.39
 -11  -5 -21 1193.38  140.59
 -11   5  21 1157.78  140.29
  11  -5  21 1275.27  137.69
   7 -11  21  148.29   20.90
 -21   7  11  124.49   46.20
  -7  11  21  177.88   24.80
   7 -11  21  181.48   28.50
 -21  11  -7  198.78   44.10
 -11 -21  -7  205.78   24.60
 -21 -11   7  229.28   41.70
  -7  21 -11  224.58   44.70
 -11  21   7  192.98   28.80
  11   7  21  188.28   27.30
  11  -7  21  187.88   28.60
 -21 -11  -7  186.78   45.20
  11  -7  21  137.29   21.10
 -21   7 -11  210.78   50.29
 -11  21  -7  213.88   42.30
  -7 -11  21  161.78   22.50
 -11   7  21  143.49   25.20
  -7  21  11  153.28   25.40
  11   9  21   79.19   19.50
  -9  11  21   87.69   17.00
   9  21  11   59.99   15.50
 -21  -9 -11   47.30   30.50
   9 -11  21   72.79   12.20
   9 -11  21  101.39   22.00
  11 -21   9   56.69   12.50
  -9  21 -11   92.39   30.60
 -11  -9 -21   51.09   16.00
   9  11  21   99.49   19.00
 -11 -21   9   75.79   15.40
 -21   9 -11  111.59   37.70
  11  -9  21  108.09   19.40
 -11   9  21   79.59   17.90
   9 -21  11   54.29   12.10
 -21  -9  11  144.19   35.20
  11  21   9  102.69   18.20
  11  21  11  402.66   44.90
 -11 -11 -21  353.46   45.90
 -21  11 -11  477.65   72.29
  11 -11  21  403.16   48.30
  11  11  21  369.46   45.30
 -11 -21  11  316.97   42.90
   1  21  13  259.37   38.70
 -13  -1  21  294.57   45.20
  -1  21 -13  340.17   53.39
  21  -1  13  392.06   43.90
  21 -13  -1  275.17   37.40
   1  21 -13  264.07   50.89
 -13  21  -1  322.17   48.90
  -1  21  13  359.26   40.20
 -13   1  21  296.27   56.79
  13  -1  21  373.06   41.10
  21   1  13  335.17   36.40
  21   1  13  294.77   41.70
   1  13  21  282.37   38.40
  -1 -13  21  281.57   35.10
  -1 -21 -13  372.76   41.00
  -1 -13  21  400.56   43.80
  -3  21 -13 1902.91  227.28
 -13  21   3 1936.51  221.78
  -3  13  21 2509.25  218.28
  21  -3  13 2100.99  220.58
  13   3  21 2189.58  219.28
   3  21  13 2319.77  218.68
   3 -13  21 2459.55  221.58
  21  -3  13 1814.42  216.18
  13  -3  21 1970.40  218.48
  13 -21  -3 2032.80  215.78
   3  13  21 2342.77  218.48
  21   3  13 1906.61  219.98
 -13  21   5 1615.94  165.38
   5 -13  21 1596.14  164.68
 -21  13  -5 1727.73  173.68
  -5 -21  13 1356.66  159.78
 -13  -5  21 1567.44  166.58
  -5  13  21 1674.43  161.58
 -13  21  -5 1350.96  169.68
   5  21 -13 1828.92  173.38
  13  -5  21 1575.24  163.78
  -5  21  13 1281.97  160.88
   5  13  21 1794.22  162.78
  21 -13   5 1381.56  160.68
 -13   5  21 1673.83  163.88
 -21   5 -13 1512.15  178.78
  13   7  21  241.98   30.90
 -21  13  -7  270.67   49.50
 -21   7  13  173.98   52.29
  -7  21 -13  226.68   47.30
  -7  13  21  176.18   28.10
 -13 -21  -7  219.98   28.80
 -13  21   7  152.18   30.90
  21 -13  -7  245.98   27.80
   7 -13  21  248.48   32.70
  -7  21  13  248.28   29.70
 -21 -13  -7  252.27   49.30
 -13   7  21  228.08   31.30
  13  21   7  223.88   29.80
  13  -7  21  195.78   26.40
  13  -7  21  212.88   32.70
   9  21  13  259.57   31.00
 -13  21   9  189.98   29.30
  13   9  21  221.88   31.60
 -21   9  13  183.98   53.59
 -21  -9 -13  196.28   56.59
 -13  -9 -21  183.28   31.80
 -13 -21   9  270.07   31.00
  13  -9  21  195.28   26.40
  -9 -13  21  252.07   28.90
  13  -9  21  230.38   33.30
 -13  21  -9  182.38   46.40
   9  13  21  179.98   29.90
 -21  -9  13  207.68   42.00
 -21   9 -13  235.08   55.39
  13  21   9  209.88   29.70
  -9  21  13  261.97   31.30
  13 -21  11  863.71   84.79
 -11 -13 -21  913.51   88.79
 -11  21  13  815.82   87.29
 -21 -11  13  947.21   99.79
 -21  11 -13 1015.30  112.49
 -21 -13 -11  700.43  102.19
  11  13  21  667.93   86.89
 -13  11  21  720.23   86.79
 -13 -11 -21  699.43   87.99
 -13 -13 -21 1025.40  113.39
 -13  13  21 1110.29  111.89
  13 -21  13 1013.90  109.09
 -21  13 -13 1071.39  131.49
 -15 -21  -1   14.10   12.40
  -1 -15 -21    3.20    8.70
   1 -21 -15   14.80    9.90
  15   1  21   26.70   11.90
 -15   1 -21   21.70   12.50
 -21   1  15   27.30   29.00
  -1 -21  15   12.90    6.10
  -1  21 -15   24.40   23.20
 -21 -15   1   -6.30   19.60
 -21  15  -1   11.00   17.50
  21 -15  -1   24.00    9.60
   1 -15  21   16.90    6.30
   1  21  15    9.00    9.80
  -1  15  21   17.00   10.10
 -15  21   1   32.20   18.50
 -15  -1  21   33.10   24.60
  21  -1  15   18.00    6.80
  21  -1  15   14.90   12.20
  15  -1  21    9.60   11.00
  21   1  15   22.30   13.00
  21   1  15   31.50    8.10
  -1 -21 -15   38.00   11.70
  -1  21  15   38.60   12.90
   1 -15 -21   14.70    7.70
   1  21 -15   20.80   23.30
 -15 -21   1    4.60   10.40
   1 -21  15    4.60    5.10
 -15  21  -1   16.10   18.70
 -21  15   1   18.70   16.00
   1  15  21   28.30   11.30
 -15  -1 -21   12.60   12.40
   3  21  15  571.74   59.49
   3  15 -21  688.13   84.69
  -3  15  21  584.34   59.09
  15   3  21  521.45   60.79
  15 -21   3  582.94   57.59
  21  -3  15  450.65   61.49
   3 -15  21  482.95   55.79
 -21  15  -3  548.35   70.19
  -3  21 -15  549.85   75.29
 -15  -3 -21  442.06   60.19
 -15 -21   3  576.04   62.39
   3  21 -15  451.95   70.59
  21   3  15  442.26   61.19
  15  -3  21  501.85   60.99
   5 -15  21  316.77   36.60
  -5  21 -15  350.66   58.09
   5  15 -21  334.87   64.99
 -21   5  15  257.07   59.69
   5  21  15  276.47   39.50
 -21  15  -5  397.56   57.09
  -5  15  21  305.87   39.20
  -5 -21 -15  291.67   40.90
   5  15  21  378.96   40.80
   5 -21  15  356.46   37.00
  15  -5  21  306.17   42.30
 -21 -15  -5  406.56   57.69
  21   5  15  374.66   43.90
 -21  15   5  294.47   42.00
 -21  -5  15  240.28   51.39
  -5 -15  21  309.17   37.40
  -5  21  15  392.96   40.50
  21 -15   5  302.47   38.60
 -15  21   7   -1.70   10.40
   7  15 -21    3.80   30.70
  15   7  21   -1.70    9.10
  -7  21 -15   -1.50   24.00
 -21  15  -7    5.80   22.50
  15 -21   7   -0.20    5.80
  -7 -15 -21   -3.00    8.50
 -21   7  15    9.90   28.20
   7  21  15   -3.70    8.30
  21 -15  -7    3.00    5.90
 -15 -21  -7   -0.70    8.60
 -21  -7 -15   -3.90   27.40
  -7 -21  15   -1.40    6.20
  -7  15  21   -0.40    8.10
  -7 -21 -15   -4.70   10.00
  21   7  15   10.20   12.40
   7  15  21    3.00    8.60
 -21  -7  15    9.10   21.20
  -7  15 -21  -10.10   28.80
 -15  -7 -21    1.70   10.80
  15  -7  21   -0.90    5.10
  21 -15   7   -7.20    6.30
 -15  21  -7    3.00   21.70
 -21 -15  -7   -8.80   20.20
 -21   7 -15  -15.30   31.10
   7  21 -15    6.10   23.70
  -7  21  15   -0.10    8.10
  15  -7  21    4.20   10.50
   7 -21  15   -3.50    5.00
 -21  15   7    4.50    9.60
  -7 -15  21    2.60    6.50
  -9 -21  15    0.10    6.20
   9  21  15   -2.00    7.90
 -21   9  15    4.50   29.20
  15   9  21    1.20    9.20
 -15  21   9   -3.00    8.70
 -21  15  -9   22.00   26.20
 -15  -9  21    4.10   11.70
  21  -9  15    2.80    6.80
  -9 -15 -21   -1.70    7.10
  -9  15  21    0.20    8.30
  -9  21 -15    6.10   24.60
  15 -21   9   -2.30    4.90
   9 -15  21   -2.00    4.30
  21 -15  -9    1.40    5.10
 -21   9 -15   12.60   31.80
  21 -15   9    0.60    6.80
   9 -21  15   -1.30    4.70
 -21  15   9   -3.20    9.00
 -21 -15  -9   11.90   21.50
  -9 -21 -15   -0.20   10.50
 -15  -9 -21    5.70   10.70
  -9  15 -21   -0.90   29.50
 -15 -21   9   -0.40    9.40
 -15   9  21   -4.00    9.90
   9  15  21   -1.60    8.90
  15  -9  21   -1.00    5.50
  -9 -15  21   -1.90    6.10
  21   9  15   -5.70   19.20
  -9  21  15    2.20    9.20
 -15  21  -9   -3.20   23.30
  15 -21  -9    3.60    6.00
  15  -9  21   -0.80   11.20
 -11 -21  15  323.77   36.10
 -11  21 -15  220.98   56.99
 -11  15  21  243.28   36.00
  15  11  21  312.07   39.00
 -21  11  15  251.37   64.99
  11 -15  21  263.47   33.30
 -15  21 -11  320.37   57.39
  15 -21 -11  327.07   36.90
 -11  15 -21  300.57   66.19
 -15  11  21  337.87   39.70
 -21  11 -15  258.27   63.09
  13  21  15  664.63   77.19
 -21  13  15  515.35  101.39
  15 -21  13  806.22   75.29
 -13  15  21  717.93   77.69
 -13 -21  15  683.23   76.59
  15  13  21  674.53   78.59
 -21  13 -15  628.44   97.49
 -13  21  15  705.33   77.39
 -13  15 -21  797.72  104.19
 -15  13  21  747.53   78.29
  15 -15  21   41.90    9.80
 -21  15 -15   53.19   37.30
  15  15  21   23.20   13.30
 -15 -15 -21   31.70   15.50
 -15  15 -21   31.30   36.10
 -15  21  15   55.49   14.50
 -15 -21  15   20.10   10.90
  15  21  15   43.80   14.60
 -15  15  21   40.30   13.30
 -15  21 -15   70.89   33.80
  21  -1  17  128.19   23.40
 -21  17  -1   58.09   23.70
   1  21  17   88.39   19.10
  21  -1  17   94.39   13.70
  -1  17  21   78.99   17.50
  17   1  21   80.89   19.80
   1 -21 -17  116.09   18.80
 -17  21   1   94.89   28.30
  -1 -17 -21   89.39   17.00
  -1  21 -17   53.99   29.70
   1  17 -21   27.30   30.60
 -17   1 -21   86.89   32.90
 -21   1  17  133.49   41.10
 -17  -1  21  137.09   33.30
   1 -21  17   68.29   12.20
  -1  17 -21   56.09   35.30
  21   1  17   48.20   17.50
   1  21 -17   76.19   31.10
  17 -21  -1   61.79   14.30
  17  -1  21   54.19   17.20
  21   1  17   78.79   13.40
 -17  21  -1   73.59   24.90
   1  17  21   94.39   18.60
 -21  17   1  123.59   29.90
 -17  -1 -21   90.49   23.10
 -17   1  21  113.69   32.70
  -1  21  17  113.79   19.30
  17   3  21   17.10   12.10
  -3 -17 -21   29.30   11.00
  21  -3  17   21.30   14.00
   3  21  17   22.90   12.10
  -3 -21  17   26.20    7.70
  -3  21 -17   32.20   26.80
 -21   3  17   28.10   29.30
 -17  -3  21    1.00   16.10
   3 -17  21   24.70    7.50
 -17 -21  -3   38.60   16.00
   3  17 -21    7.00   29.70
  -3  17  21   10.90    9.90
 -17  21   3   67.19   19.30
 -21  -3 -17   -2.50   28.40
  21  -3  17   31.80    9.50
   3 -21 -17   58.59   15.40
 -21  17  -3    0.50   17.40
  -3  17 -21   19.00   31.40
 -21  -3  17   22.70   24.60
   3  17  21   22.40   11.40
  -3 -21 -17   19.10   10.50
 -17  21  -3   33.50   21.00
 -21 -17  -3   -4.80   18.40
  -3  21  17   27.00   11.50
 -21  17   3    6.50   13.80
 -17  -3 -21   -0.30   12.10
  21   3  17   19.10   14.20
  17 -21  -3   25.90    9.50
  17  -3  21   21.80   13.10
   3  21 -17    3.10   22.10
  21 -17   3   39.00   11.50
 -17 -21   3   22.50   15.10
  21  -5  17  249.38   28.60
 -21   5  17  165.18   50.19
  21 -17  -5  196.98   27.80
  17 -21   5  236.88   27.40
   5  17 -21  123.99   46.90
   5 -17  21  206.78   25.80
 -17 -21  -5  218.98   33.70
  21  -5  17  222.18   34.00
  -5  17  21  221.78   29.60
  17   5  21  189.38   31.00
   5  17  21  261.27   30.70
  17  -5  21  237.28   33.30
  21   5  17  222.98   34.20
   5  21 -17  200.68   52.59
 -21 -17  -5  303.47   46.20
 -21  17   5  162.08   31.80
  -5 -17  21  224.68   26.80
  -5  21  17  196.78   29.40
 -17  21  -5  137.79   39.80
   5 -21  17  211.68   26.00
 -17  -7  21   72.89   23.30
 -21   7  17   27.40   33.20
 -21  17  -7   64.79   28.50
  -7  21 -17   25.00   28.40
  21  -7  17   51.39   12.70
 -17 -21  -7   56.59   17.80
  -7  17  21   69.19   16.50
   7  17 -21   79.69   38.40
 -21 -17   7  108.59   28.30
  17 -21   7   54.39   11.90
  -7 -21  17   43.20   11.50
  17   7  21   70.99   20.90
   7  21  17   77.29   16.70
  17  -7  21   72.49   20.00
  17 -21  -7   40.50   12.20
  -7  21  17   54.39   16.40
   7  21 -17   41.00   31.70
  17  -7  21   64.89   13.40
 -17  -7 -21   35.60   15.80
  -7 -21 -17   57.09   16.40
  -7  17 -21   12.60   29.20
 -17  21  -7   26.90   23.10
 -21  17   7   96.99   20.10
 -21   7 -17   12.20   31.40
   7  17  21   53.09   14.40
 -21  -7  17   53.29   25.60
  21   7  17   64.89   17.70
 -21   9  17   69.69   40.60
  17 -21   9  141.69   18.30
  21 -17  -9  142.69   19.00
 -21  17  -9   97.99   34.00
  21  -9  17  124.39   19.40
   9 -17  21   98.89   16.30
  -9  17  21  161.88   23.40
 -17  21   9   86.69   20.70
  -9 -17 -21  159.48   24.10
   9  21  17  125.19   21.70
  -9 -21  17  118.19   18.60
  17   9  21   92.09   24.40
 -21 -17  -9  186.98   38.70
 -21  -9  17  118.79   31.50
  17  -9  21  151.48   19.80
  17  -9  21   74.79   23.70
 -21   9 -17   63.29   40.40
  -9  21  17  136.79   22.40
  -9 -21 -17   96.09   23.80
  21   9  17  118.59   26.30
   9  17  21  121.89   22.30
 -21  17   9  153.38   24.50
 -17  21  -9  208.48   43.50
  -9  17 -21   50.99   37.10
 -17  -9 -21  106.29   24.90
  21 -11  17   21.10    9.60
 -11  17  21   14.10   11.30
 -11  21 -17   48.30   31.10
 -21  17 -11   47.20   30.20
 -17 -11  21   66.09   19.20
  17  11  21   49.80   15.70
  11  21  17   25.20   11.70
 -11 -21  17   52.39   12.20
  11 -17  21   29.80    8.60
 -17  21  11    8.70   10.90
 -17 -11 -21    6.20   13.00
  21 -17  11   57.89   12.30
  11  17  21   38.50   14.10
 -11  21  17   32.60   12.80
  21  11  17   33.50   16.30
 -17  21 -11   48.50   28.50
 -21  11 -17   70.09   39.90
 -21  17  11   36.00   13.90
 -11 -17  21   17.00    9.40
 -11  17 -21   34.40   35.50
  17 -11  21   40.80   11.30
 -13  17  21  187.28   26.70
 -17  13 -21  135.09   47.80
 -21  17 -13  137.69   43.00
 -17 -13  21  217.08   29.70
  17 -13  21  187.38   23.60
  21 -17  13  133.89   22.60
 -13  21  17  200.38   27.30
 -17 -13 -21  131.09   29.40
 -13  17 -21  258.47   61.59
 -21  13 -17  139.99   47.80
 -17  21 -13  123.89   41.30
  13  17  21  195.48   28.10
 -21  17  13  149.88   26.30
 -17  21  15   -0.30    9.40
 -17  15 -21   27.60   38.00
  17  15  21    0.30   10.50
 -17 -15  21   -9.40    8.40
 -21  17 -15   -4.10   30.30
  15  21  17   -4.40   11.20
  15 -17  21    1.20    5.40
  17 -21  15    1.90    5.60
  21 -15  17    6.30    7.30
 -15  17  21    0.60   10.10
 -17  21 -15   14.60   34.60
 -15  21  17   -4.30    9.60
 -15 -21 -17   -1.20   22.30
 -17  15  21   -3.20   10.40
  21 -17  15   -4.90    5.70
  15 -21  17    0.60    5.10
 -21  15 -17  -13.90   31.10
  15  17  21    3.50   10.60
  17 -15  21   -1.40    5.80
 -17 -21  15   -3.20   10.40
  17  17  21  102.79   27.20
 -17 -17 -21  148.59   28.00
 -17  17 -21  104.19   44.30
 -21 -17  17  138.09   26.10
 -17  17  21  109.69   24.90
  17 -17  21  131.09   18.90
 -21  17 -17  243.18   57.99
 -19 -21  -1   -1.10   13.60
 -19  21   1   -5.30   14.50
   1  19 -21   10.60   27.10
 -21   1  19   12.20   24.90
  -1  19  21    0.40    9.20
   1  21  19   -4.50    9.70
   1 -19  21   -2.20    4.40
 -19  -1  21   -6.60   18.80
  -1  21 -19  -13.30   24.40
  21  -1  19    1.50   11.60
  21  -1  19   -1.80    5.50
  19   1  21   -4.80   10.20
   1 -21 -19   -4.60    7.80
 -21  19  -1   -9.50   16.80
  -1 -19 -21    0.10    8.00
  -1 -21  19    1.10    4.70
  19 -21   1   -0.70    6.60
  21   1  19   -3.70   12.30
  -1  21  19    1.60    9.90
   1 -21  19    0.80    4.90
   1  19  21    3.50    9.30
 -19   1  21   -8.90   19.90
  -1 -21 -19    0.30    7.80
   1 -19 -21   -4.90    7.10
 -21  19   1    2.60   16.30
 -19  -1 -21   -6.10   11.50
 -21  -1  19   15.60   23.10
 -19  21  -1  -15.00   15.80
  19  -1  21   -1.40   11.00
  21 -19   1    0.50    6.90
 -21 -19  -1   -1.40   16.40
  -1 -19  21    2.10    4.60
 -19 -21   1   -1.50   13.10
   1  21 -19    2.10   24.90
  -1  19 -21    2.80   27.40
  21  -3  19  416.86   50.39
  -3  21 -19  424.86   66.99
  19 -21   3  380.86   44.80
  -3 -21  19  432.36   43.10
  19   3  21  348.57   48.30
 -19  21   3  415.16   51.49
  -3 -19 -21  323.77   44.60
  21 -19  -3  371.36   45.50
   3 -19  21  349.17   42.60
   3  19 -21  473.25   72.79
 -21 -19   3  363.56   53.79
   3  21 -19  384.26   64.89
 -19  -3 -21  367.06   49.40
  19  -3  21  423.86   49.90
  -3  19 -21  386.46   68.49
 -21  19   3  449.76   52.49
  -5 -19 -21  334.47   43.00
  21  -5  19  376.36   43.10
  19   5  21  353.86   45.50
 -21   5  19  492.55   72.39
   5  21  19  287.57   42.60
   5  19 -21  441.86   74.19
 -19 -21  -5  428.96   51.39
  21  -5  19  401.36   49.10
  -5  19  21  318.77   43.40
   5 -19  21  363.06   40.50
  -5  19 -21  374.36   68.39
 -19  21  -5  461.65   58.19
   5  21 -19  286.47   65.99
  19  -5  21  277.67   46.10
  19  -5  21  391.56   43.00
  19 -21  -5  340.37   42.30
  -5  21  19  411.16   45.40
  21  -7  19   48.10   12.00
  19   7  21   31.30   13.80
 -21  19  -7    0.00   21.50
  -7  19  21   25.40   12.20
 -19  21   7   36.90   14.20
 -21   7  19   47.80   39.90
  -7  21 -19   11.60   30.10
  -7 -19 -21   65.29   17.30
   7  21  19   41.10   13.90
 -19 -21  -7   32.90   20.60
  -7 -21 -19   35.00   13.20
 -21  19   7   36.00   13.10
 -19  21  -7   17.50   23.40
  19  -7  21   27.20   11.40
  19  -7  21   36.50   16.10
 -19  -7 -21   25.20   14.60
  19 -21  -7   32.60   10.60
  -7  19 -21   25.00   33.20
   7 -21  19   48.70    9.90
   7  19  21   41.40   13.70
  -7  21  19   41.30   13.50
 -21  -7  19   21.10   21.10
 -19 -21   7    9.00   13.80
  21   7  19   26.20   15.40
 -21 -19  -7   64.09   24.30
 -19  -9  21   14.50   16.50
  19   9  21   42.90   15.70
  -9 -21  19   17.70    8.80
  -9  21 -19   38.20   31.60
   9  21  19   40.10   12.90
  21  -9  19   34.50   11.10
  -9 -19 -21   20.30   12.00
  -9  19  21   37.60   12.90
   9 -19  21   27.30    8.10
 -21 -19   9   50.09   20.30
 -21  19  -9   33.60   27.50
 -19  21   9   18.40   12.50
  -9 -19  21   22.90    9.60
 -19 -21   9   32.90   14.60
 -19  21  -9   60.59   28.90
  -9  21  19   44.30   13.60
 -21   9 -19   13.70   35.30
   9  19  21   46.20   14.00
 -21  -9  19   20.30   20.20
  -9 -21 -19   18.80   12.80
 -21  19   9   46.20   14.50
 -19  -9 -21   42.10   16.00
  -9  19 -21   -0.70   32.30
  21   9  19   42.80   17.30
  19  -9  21   38.00   11.60
  19 -21  -9   17.20    9.30
   9 -21  19   16.30    7.30
 -21  19 -11  422.16   66.39
  19  11  21  422.76   52.39
 -19  11 -21  467.25   79.89
 -11  19  21  429.86   48.80
 -19  21  11  320.87   48.20
 -11 -19 -21  451.05   50.79
  11  21  19  326.37   47.70
 -19 -11  21  471.05   54.49
 -11  21  19  354.16   48.30
 -11  19 -21  467.05   77.19
  19 -21 -11  437.36   47.20
  21  11  19  420.66   53.99
  11  19  21  479.25   50.59
  21 -19  11  363.96   46.20
  19  13  21  473.25   54.09
  13  21  19  473.55   52.79
 -13 -19 -21  385.56   52.19
 -13  21 -19  342.77   73.19
  13 -19  21  396.46   46.50
 -13  19  21  429.76   50.99
 -21  13 -19  438.66   81.89
  13 -21  19  395.16   46.50
 -13 -21 -19  491.85   69.19
 -13  19 -21  508.35   80.19
 -21  19 -15   36.00   33.40
 -15  21 -19   46.60   36.30
  15  21  19   95.39   21.80
 -15 -21  19   38.10   12.50
  19  15  21   95.79   23.10
 -19 -15  21   25.80   14.50
  15 -19  21   36.30   10.10
 -15 -19 -21   49.80   17.90
 -15  19  21   79.09   18.40
 -21  19  15   36.60   15.10
  19 -15  21   58.39   15.10
 -15  19 -21   92.09   42.10
 -19 -15 -21   28.30   16.70
  15 -21  19   31.80   10.00
 -15  21  19   69.59   18.00
  21 -19  15   58.99   12.50
 -21  15 -19   63.89   39.40
 -19 -21  15   64.29   16.90
  21 -17  19    2.00    6.60
  19 -21  17   -2.40    5.70
 -21  19 -17   -8.00   29.50
 -17  19  21    1.80   11.20
  17 -19  21    6.40    6.30
 -19  17 -21   -0.40   35.50
 -17  21 -19   10.80   32.90
 -17 -21  19    5.90    8.90
  19  17  21  -10.80   14.40
  17  21  19    1.50   14.30
 -19  21  17    5.10   11.20
 -17 -19 -21   11.80   13.90
 -19 -17  21    8.40   10.00
 -17  19 -21  -15.20   31.80
 -19 -17 -21    5.20   13.60
 -19 -21  17    0.10    8.90
  17  19  21   -0.60   12.60
 -17 -21 -19   -2.10   14.00
 -21  17 -19   38.10   36.40
 -21 -17  19   16.20   12.70
 -17  21  19    2.30   11.20
  17 -21  19    6.30    5.70
 -19  21 -17   23.60   31.90
 -17 -19  21    2.50    8.70
  21 -19  17    7.30    7.10
 -21 -19  19   56.59   15.90
 -21  19 -19   26.70   35.10
 -19 -21 -19   25.10   17.80
 -19 -19 -21   83.59   20.90
 -19  19 -21   89.79   41.90
 -19  21 -19   32.40   33.10
 -19  21  19   35.00   14.80
  19 -21  19   64.69   12.50
 -21  21  -1  431.56   60.79
  -1 -21 -21  526.35   52.49
  -1  21  21  424.56   53.19
   1 -21 -21  432.26   51.99
   1  21 -21  321.97   70.49
  21 -21  -1  441.66   52.09
  21  -1  21  461.95   57.09
  21   1  21  545.25   58.89
 -21 -21  -3  904.51  101.59
 -21  -3 -21  732.13   96.89
 -21  21  -3  908.41  102.99
  -3  21 -21  951.30  114.49
   3 -21  21  862.81   91.29
   3  21 -21  961.60  116.19
 -21  21  -5 1535.85  164.68
 -21  21   5 1393.26  157.18
  -5  21 -21 1631.94  175.38
   5  21  21 1540.35  156.48
  21 -21   5 1381.06  154.58
  21  -5  21 1554.24  159.38
  21   5  21 1467.75  158.08
 -21 -21  -7  504.25   65.49
 -21  -7 -21  553.14   62.29
 -21  -7  21  428.56   64.89
  -7  21 -21  461.25   79.89
   7 -21  21  546.45   54.79
   7  21  21  479.65   57.89
 -21  -9 -21  827.82   91.89
 -21  -9  21  801.72   95.09
 -21   9 -21  792.82  113.69
 -21  21   9  827.52   89.09
   9  21  21  750.82   87.99
  21 -21   9  956.90   95.69
  21   9  21  721.23   89.99
 -21  11 -21 1321.07  160.38
 -11  21  21 1358.76  136.59
  21 -21 -11 1213.78  134.19
  21 -21  11 1343.87  134.79
  21 -11  21 1240.78  135.29
 -13  21 -21 1234.78  140.69
  13  21  21 1017.90  117.49
 -21 -15  21  516.45   65.49
 -21  21 -15  564.24   83.59
 -21  21  15  516.45   65.59
 -15  21 -21  546.75   91.29
 -15  21  21  581.04   65.19
  15  21  21  608.74   67.39
  21 -15  21  597.84   63.49
 -21 -21  17  144.39   23.40
 -21 -17 -21  194.68   32.20
 -21 -17  21  103.89   22.60
 -21  17 -21  116.39   45.80
 -21  21 -17  141.99   45.00
 -17 -21  21  164.38   22.50
 -17  21 -21   58.99   40.00
  17  21  21  143.89   30.50
  21 -17  21  141.29   20.90
 -21 -21 -19  500.45   56.69
 -21 -19 -21  438.96   54.59
 -21  19 -21  246.88   73.79
 -21  21 -19  374.86   72.09
 -19  21  21  476.75   51.59
  21 -21  19  348.37   45.20
  21 -19  21  384.16   46.00
   0   0  22 1339.97  132.19
   0  22   0 1172.38  135.29
  -2  22   0    5.50   14.60
   0  -2  22   -4.80    8.70
   0   2  22    5.70    8.90
   2 -22   0    2.60    4.90
   2  22   0    0.50   12.00
   2   0  22   -5.40    8.10
  22  -2   0    1.00    4.50
   0  22  -2   -6.50   13.10
  -2   0  22   -1.10    7.10
   0 -22  -2   -0.40    3.70
   0 -22  -2    0.00    9.10
   0  22   2   -7.20   10.10
   2   2  22  226.18   27.80
   2  22  -2  162.28   32.00
 -22  -2  -2  104.39   41.70
 -22  -2   2  141.29   46.90
  -2 -22   2  167.68   21.60
  -2  -2  22  196.68   27.10
  -2   2  22  187.48   26.50
  -2  22  -2  145.29   33.40
   2  -2  22  201.78   27.40
 -22   0   4   99.89   41.90
  -4  22   0  188.98   30.10
 -22  -4   0  121.69   43.20
  -4   0 -22  147.39   22.90
  -4   0  22  121.59   23.70
   0 -22  -4  202.38   20.80
   4   0  22  165.48   23.70
   0  -4  22  166.98   25.60
   0  -4  22  189.48   20.50
   0   4  22  128.19   22.30
   2  -4  22  796.02  101.29
  -4 -22  -2 1089.29   99.49
   2 -22  -4 1004.70   99.19
  -4  -2  22  927.61  101.99
   2  22   4  827.52  101.49
   4 -22   2  815.12   98.59
   4   2  22 1043.90  102.49
  22  -4  -2  861.91   99.69
 -22  -4   2 1104.69  124.79
  -2   4  22 1116.19  102.69
   4  -2  22  853.01  101.69
   2  22  -4  796.82  105.39
  -4   2  22 1004.90  101.99
  -2  -4  22 1032.80  102.79
   4  22   2 1120.09  103.59
  -4   4  22 1974.60  238.68
  -4  -4  22 2205.08  239.68
   4 -22  -4 2535.75  237.48
   4   4  22 2421.36  240.08
   4  22  -4 2318.17  255.27
  -4  22   4 2640.44  243.38
  -4 -22   4 2304.37  237.68
   0  -6  22   39.10   13.10
 -22   0   6   31.60   29.90
   0  22  -6   25.50   17.70
  -6 -22   0   37.40    9.50
  -6   0  22   46.70   13.30
   0 -22  -6   28.90    7.70
   0 -22  -6   29.50   11.50
   0 -22   6   28.90    7.90
   0   6  22   32.00   11.70
   0  22   6   35.60   11.90
   6   0  22   42.30   12.40
  22  -6   0   31.70    9.30
  -6   0 -22   54.39   14.20
 -22  -6   0   38.20   30.30
   2  -6  22  168.98   26.00
   2 -22  -6  212.28   25.00
  -6  -2  22  149.49   25.90
  -2  -6 -22  148.49   23.70
   2  22   6  178.68   25.30
  -2  22  -6  109.19   32.90
  -2 -22   6  171.58   21.60
   6   2  22  218.98   26.90
 -22   2   6  115.79   44.60
  -2   6  22  164.98   25.40
  -2 -22  -6  164.38   26.80
  -6 -22   2  156.28   21.90
  -6   2  22  171.68   25.70
   2   6  22  170.08   26.10
  -2  -6  22  185.28   21.30
   6  -2  22  201.28   27.00
  -2  22   6  219.38   26.60
  -2  -6  22  142.29   26.30
   2 -22   6  180.08   21.40
  -6 -22  -4 1206.18  131.79
  -4   6  22 1383.26  134.79
   6   4  22 1310.07  134.79
  -4 -22   6 1405.36  132.59
  -6  -4  22 1442.56  136.19
   4  22   6 1338.87  134.19
   4  -6  22 1284.57  134.79
 -22  -4   6 1079.09  149.99
   6  -4  22 1253.97  134.69
  -4  -6  22 1182.28  131.59
  -4 -22  -6 1140.49  130.79
  -6   4  22 1215.38  133.99
   4   6  22 1430.96  135.19
  -6  -4 -22 1099.29  132.79
  -4  -6  22 1306.37  134.99
   4  22  -6 1475.25  145.69
   6 -22  -6  626.64   66.19
  -6  -6  22  569.44   69.89
  -6  -6  22  635.04   67.19
  -6   6  22  615.14   69.19
   6  -6  22  612.24   70.19
  -6 -22  -6  678.53   66.59
   0   8  22  314.07   43.80
   8 -22   0  399.06   42.20
  -8   0  22  338.27   44.70
   0  -8  22  361.96   46.10
   0  -8  22  330.67   40.60
  -8 -22   0  397.26   42.60
   8  22   0  404.66   44.20
   8   0  22  347.57   45.40
   0 -22  -8  430.96   41.70
   0 -22   8  408.26   41.30
  -2 -22   8   -0.40    4.50
   8   2  22   -0.80    8.80
   2  -8  22    1.20    4.10
   2 -22  -8    8.90    8.60
   2  22   8    6.40    8.90
   8 -22   2    1.10    5.20
   8  22  -2   -3.30    8.90
  -8   2 -22    2.50    8.00
  -2  22  -8    9.30   18.20
  -8  -2  22    6.00    6.30
 -22  -8   2    4.70   25.80
  -8  22   2    8.00   14.20
  -2   8  22    9.70    9.10
  22  -8  -2    1.50    5.70
  -2  -8 -22    4.50    6.20
   2  -8  22    4.50   10.10
   2 -22  -8    4.20    5.20
   2  22  -8    6.50   16.20
   8  22   2    4.20    8.30
  -2  -8  22    2.90    4.00
   2   8  22   -3.30    8.20
   8 -22  -2    9.10    5.90
 -22  -8  -2    1.90   26.60
  -2  -8  22   -1.70    9.80
  -8  -2 -22   -1.30    7.80
  -8  22  -2    5.70   17.10
  -8   2  22    4.80    8.90
  -2 -22  -8   -3.40    7.00
  -2 -22  -8   -1.10    9.40
   8  -2  22   -1.20    9.40
 -22  -2   8   -1.90   27.00
   2 -22   8    5.60    5.00
  -2  22   8    8.60    9.70
  22  -8   2    3.20    6.60
   4  -8  22  267.37   35.30
   4  22   8  274.17   32.90
  22  -4   8  286.47   30.50
   8   4  22  288.77   34.10
  -8  -4  22  217.78   35.00
  -8  -4  22  265.27   31.30
 -22  -4  -8  211.38   54.29
  -4  22  -8  190.18   42.80
 -22  -4   8  161.28   48.70
  -4 -22  -8  251.47   35.30
 -22  -8  -4  260.87   54.99
   8 -22  -4  221.38   28.70
  -4  22   8  202.18   31.90
  -4  -8  22  293.57   35.40
  -4  -8  22  220.48   28.90
   8  -4  22  243.48   32.20
   8  22   4  293.87   33.40
  -6   8  22   -3.80    7.70
  -8  -6  22   -5.60    5.30
  22  -6   8    2.50    6.20
   6  -8  22    2.20    4.50
  -6  -8 -22    1.70    8.20
  -6 -22   8    0.60    5.20
 -22  -6  -8   -6.00   26.00
  -8 -22  -6    0.00    4.60
   6  -8  22   10.60   11.60
   6  22   8    0.60    7.80
  -6  22  -8    1.00   19.40
  -8  22   6   -1.50   10.60
   8  22  -6    4.60   13.20
   8 -22   6   -0.60    5.40
   8   6  22   -1.70    9.70
   6 -22  -8    1.50    5.00
  -8  22  -6   -1.20   17.40
  -8   6  22    1.90    8.60
  -6  -8  22    0.90    5.40
   8  22   6    0.90    7.10
   8  -6  22    0.90    7.60
   8  -6  22   -4.20    4.70
   8 -22  -6    0.60    4.20
  22  -8   6    6.40    7.00
 -22  -8  -6   23.10   27.90
  -6  22   8    0.10    7.30
   6   8  22   -8.10    8.70
  -8  -6 -22   -1.80    8.40
  -6  -8  22    3.10   11.40
   6 -22   8   -2.60    4.90
   8  22   8  236.48   30.90
   8   8  22  202.38   31.50
   8 -22  -8  247.68   27.40
   8  -8  22  236.18   33.30
 -22  -8  -8  246.58   53.99
 -22   8  -8  185.58   49.10
   8  -8  22  236.08   27.50
 -22   0  10   25.90   30.00
   0  22  10   59.19   17.60
   0  22 -10   52.69   23.90
   0 -10  22   56.79   16.60
   0  10  22   59.99   15.80
  10   0  22   87.19   18.30
  22   0  10   59.39   11.30
  10  22   0   78.79   16.10
 -10  22   0   80.29   23.60
 -10  -2  22  143.59   22.70
  -2  22 -10  131.39   33.80
 -10   2 -22   87.79   18.20
  -2  10  22   99.19   17.20
   2 -10  22  132.99   23.40
   2 -10  22   98.09   14.50
  -2 -10 -22   91.29   16.30
 -22 -10   2  102.69   37.00
 -10  22   2   81.69   24.40
 -10  -2 -22  108.69   19.60
   2  10  22   86.09   19.20
 -10   2  22   76.79   21.00
  -2 -22 -10   73.19   21.50
  -2  22  10  103.49   20.50
  -2 -10  22  124.19   22.70
  10  -2  22  117.99   21.30
  -2 -10  22  105.99   14.20
 -10  22  -2   76.19   25.40
   2  22 -10  105.39   30.60
 -22  10  -4  616.84   79.39
 -10  22   4  575.44   70.39
  -4  10  22  700.43   66.69
   4 -10  22  487.25   67.19
 -10 -22  -4  671.13   65.19
  -4  22 -10  530.45   75.99
   4 -22 -10  640.64   64.89
 -10  -4  22  648.44   67.19
  22 -10  -4  616.64   64.59
  10   4  22  675.03   67.89
   4 -10  22  496.25   62.89
  10  -4  22  624.94   67.89
  10 -22  -4  541.15   63.19
 -10  22  -4  671.83   76.79
  -4 -10  22  553.64   67.79
   4  22 -10  475.25   71.99
   6 -10  22  146.49   24.40
 -22  -6 -10   76.09   35.60
 -10  -6  22   95.89   18.60
 -22  10  -6   80.39   30.60
  10   6  22  117.89   21.70
  -6  22 -10   50.99   27.10
  -6 -10  22   81.39   15.90
  -6 -10  22  146.69   25.50
   6 -22  10  119.59   16.30
  -6  22  10  116.79   21.30
  10  22   6  135.49   20.70
 -10   6  22  121.19   21.30
  -6 -22 -10  123.29   23.90
 -22   6 -10  136.39   39.30
  22 -10   6  103.99   17.80
  10  -6  22  146.69   23.50
  10 -22  -6  103.39   15.40
 -10  22  -6  125.19   35.20
   6  10  22  107.09   21.10
 -22 -10  -6   45.50   32.90
 -22 -10   8    3.10   22.20
   8 -10  22   21.00   12.40
  10   8  22   26.80   12.50
 -10  22   8   34.60   12.70
  -8 -10 -22   35.80   12.60
   8 -10  22   13.90    6.30
  22  -8  10   33.20   10.20
 -22  -8 -10    4.40   27.30
  -8  22 -10   22.70   24.10
 -22  10  -8   21.90   25.10
  -8  10  22   10.20    9.00
 -10  -8  22   30.70   10.70
   8  22  10   10.60    9.00
   8  10  22   20.00   11.50
  10 -22  -8   22.30    7.60
  10  22   8    4.80    9.10
  -8  22  10   13.20   11.10
   8 -22  10   12.90    7.30
 -22 -10  -8   13.40   27.80
  10  -8  22   20.80   12.80
  10  -8  22   27.90    7.80
 -10  22  -8   13.70   21.80
 -22   8 -10   31.70   29.30
 -10  -8 -22   19.40   11.00
  22 -10   8   19.40    9.00
 -10   8  22   17.80   10.40
 -10 -22   8   29.10    9.60
 -10  10  22   -4.20    8.00
  10  10  22    3.10    9.50
  10  22  10   -1.00    9.00
  22 -10 -10    0.10    4.40
  22 -10  10    3.80    7.10
 -22 -10 -10    7.40   25.10
 -10 -22  10   -0.80    6.70
 -10 -10 -22   -3.40    9.70
 -10 -10  22    9.70    8.10
  10 -10  22    2.30   11.40
  10 -10  22   -0.40    4.00
 -10  22  10   -5.60    8.70
 -22  10 -10   19.00   27.50
  10 -22  10   -1.50    5.00
 -10  22 -10   -0.50   21.50
  10 -22 -10    2.00    5.80
   0 -22 -12    6.70    8.80
  12   0  22   21.70   11.50
   0  22 -12    7.20   19.50
 -22   0  12   14.40   27.40
 -12  22   0   21.40   18.40
  22 -12   0   15.50    8.60
   0  12  22   29.60   11.10
 -12   0 -22   19.60   10.50
   0 -12  22    7.90    5.40
  12 -22   0   16.70    7.40
   0 -12 -22    8.50    8.70
   0 -12  22   17.80   12.90
 -22  12   0   32.20   18.40
   0  22  12   40.20   12.50
  22   0  12   29.60    8.00
 -12   2 -22  486.05   61.09
  12   2  22  608.24   63.79
 -12 -22  -2  619.84   62.39
 -12  22   2  624.64   69.39
 -12  -2  22  628.34   69.19
   2 -12  22  645.74   65.29
  -2  12  22  472.45   60.59
 -22  12  -2  476.85   69.19
 -12 -22   2  529.95   61.49
 -12  -2 -22  615.24   63.69
  -2 -12  22  477.25   63.29
  12  -2  22  528.65   62.69
   2  12  22  506.05   61.29
   2  22 -12  509.35   71.59
 -22  -4 -12  989.10  145.99
   4 -12  22 1365.06  132.19
 -22   4  12 1011.70  147.09
  -4  12  22 1195.08  128.29
  -4 -12  22 1033.30  126.19
 -12   4  22 1304.57  130.89
  -4 -22 -12 1333.87  131.19
  12 -22  -4 1412.46  127.39
  -4 -12  22 1225.38  131.29
   4  22 -12 1159.58  138.09
  22 -12   4 1359.66  128.99
 -22   4 -12 1213.08  146.59
  12 -22   6  506.45   51.29
 -12  22   6  453.65   55.99
   6 -12  22  387.26   54.79
  -6 -12 -22  424.86   52.79
  -6  12  22  402.96   52.09
  -6  22 -12  464.35   67.69
 -22  12  -6  533.55   68.99
  22  -6  12  490.75   52.29
 -12 -22  -6  425.26   51.69
 -22   6 -12  515.95   79.59
   6  12  22  421.76   53.79
  12  22   6  456.35   52.59
 -22 -12  -6  366.96   68.19
  12 -22  -6  545.95   51.79
  12  -6  22  467.85   55.59
   6  22 -12  444.06   62.59
 -12   6  22  527.95   55.99
  -6 -12  22  491.25   56.99
 -12  22   8   11.90   11.20
  -8  12  22   22.80   10.50
  12   8  22   15.80   11.80
  22 -12  -8   35.50    9.30
 -22  -8 -12    6.80   28.20
  -8  22 -12    8.70   23.30
 -22  12  -8   21.60   26.60
 -22   8  12   30.20   33.20
   8  22  12   14.60   10.40
 -12 -22  -8   18.50    8.70
  -8 -12 -22   16.70    9.30
   8 -12  22   10.90   12.20
 -12  -8 -22   28.40   12.50
  12 -22  -8   20.40    7.90
  12  22   8   11.00    9.20
 -12 -22   8    4.00    8.30
 -22   8 -12   21.80   29.30
  12  -8  22   17.60    7.70
  12  -8  22   23.00   13.20
 -22 -12  -8    4.00   25.40
 -12  22  -8   37.70   25.60
  -8 -12  22   35.90   10.30
   8  12  22   34.10   12.20
 -12   8  22   17.70   10.40
  -8 -22 -12   12.90   12.40
  -8  22  12    3.40   10.00
 -22  12 -10  248.48   54.89
  12  10  22  188.58   29.40
 -22 -10 -12  299.87   55.69
  10 -12  22  158.48   23.30
  10 -12  22  188.38   32.00
  22 -12 -10  228.08   25.30
 -22  10  12  122.19   49.99
 -10  22  12  191.08   28.80
  12 -10  22  195.88   31.40
  12 -10  22  211.48   24.60
 -12 -10 -22  226.18   28.70
 -12 -22  10  234.88   27.20
 -12  22 -10  171.28   45.30
  12 -22 -10  159.18   24.80
 -10 -12  22  194.78   26.20
 -22  10 -12  199.98   53.29
  10  12  22  156.98   28.40
  12  22  10  169.58   27.60
 -22 -12 -12  547.65   77.59
 -12  22  12  381.86   49.00
  12  22  12  371.06   48.20
  22 -12  12  426.26   48.10
 -12  22 -12  375.56   65.59
 -22  12 -12  506.85   73.99
   0  22 -14  166.38   40.70
  14   0  22  121.79   24.00
   0  14  22  146.39   23.60
  22   0  14  150.68   28.90
  22   0  14  183.98   21.00
   0 -14  22  145.49   19.40
  22 -14   0  180.18   23.30
   0  22  14  167.68   25.40
 -14   0 -22  117.19   24.70
 -22  14   0  178.38   33.50
  22  -2  14  595.94   69.39
  14 -22   2  503.15   62.99
 -22   2  14  621.74   87.29
  -2  14  22  502.35   64.29
  22  -2  14  548.75   62.69
  14   2  22  634.74   67.09
 -14   2 -22  601.44   66.49
  -2  22 -14  702.13   80.59
 -14  -2  22  717.13   77.69
 -22  14   2  604.64   70.49
 -22 -14  -2  538.75   79.09
  22  -4  14 1634.24  161.58
   4  22  14 1482.45  162.08
 -14  22   4 1307.97  164.88
  -4  22 -14 1836.32  177.08
   4 -14  22 1508.65  160.08
  14   4  22 1613.64  164.38
 -22  14  -4 1356.46  169.28
  -4 -14  22 1560.84  160.78
   4 -22  14 1594.34  160.08
 -22  14   4 1524.25  164.78
  14  -4  22 1706.83  165.28
   4  14  22 1493.65  162.48
 -14 -22   4 1809.72  164.68
  22   4  14 1472.75  165.18
  -4  22  14 1639.14  163.28
 -22   6  14  155.88   52.59
  -6  22 -14  195.98   48.30
 -22  14  -6  290.47   52.29
   6  14 -22  348.97   60.79
 -22  -6 -14  210.58   55.09
   6  22 -14  270.67   50.29
  14 -22  -6  283.57   31.50
  -6  22  14  250.37   33.40
 -14  -6 -22  247.78   35.30
  -8 -22  14   29.90   10.10
  -8 -14 -22   29.00   12.70
 -14  22   8   67.29   17.60
  22  -8  14   38.10   11.10
  -8  22 -14   17.20   24.70
  14 -22   8   40.30    9.90
   8  22  14   51.09   15.00
 -14 -22  -8   45.70   13.20
 -22  14  -8    8.00   26.40
  14   8  22   43.10   14.10
  -8  14  22   36.90   12.30
  22 -14  -8   60.69   11.40
 -22   8  14   32.30   35.50
 -22  -8 -14   22.80   33.40
 -22  -8  14   -4.20   20.50
 -22   8 -14   26.50   34.70
 -14  22  -8   24.10   24.00
   8  14  22   30.00   12.20
  -8 -22 -14   36.30   14.80
 -14  -8 -22   21.80   13.10
  14  -8  22   43.70   15.50
  14  -8  22   45.70   10.90
  -8  22  14   34.30   12.90
 -22 -14  -8   12.10   25.40
  -8 -14  22   53.69   12.00
 -14   8  22   41.00   14.80
 -10 -14 -22  258.27   36.70
 -22 -14  10  267.07   46.30
 -22  14 -10  258.97   55.59
 -10  14  22  228.08   34.90
  22 -14 -10  278.97   33.40
 -14  22  10  306.27   36.80
  10  22  14  322.87   36.30
  10 -14  22  307.07   32.90
  22 -10  14  277.97   34.50
 -10  22 -14  356.76   57.99
  14 -22 -10  232.58   33.40
  14 -10  22  277.67   39.50
 -14  10  22  257.17   37.00
  10  14  22  294.47   37.30
 -10  22  14  329.47   36.80
 -22  10 -14  235.88   60.09
 -22  14 -12 1188.08  129.69
  12 -14  22  970.60  106.79
 -12  22 -14  926.91  124.19
 -12 -14 -22 1035.70  110.69
  22 -14 -12 1122.39  108.19
  12  22  14 1017.60  109.69
  14  22  12 1062.59  110.09
 -22  12 -14  842.32  126.09
 -12 -14  22 1055.69  109.29
 -14 -22  12  930.41  108.59
  12  14  22 1169.48  111.29
 -14  12  22 1007.00  109.69
 -14 -12 -22 1017.60  111.09
 -14 -14 -22  734.63   77.59
 -14  22  14  631.44   74.79
  14 -14  22  766.02   73.09
  14  22  14  601.84   75.29
 -22  14 -14  795.62   99.19
 -22  14  14  496.65  101.09
  22   0  16   80.59   14.80
   0  22 -16   91.79   31.60
   0  16  22  105.19   20.30
 -16   0 -22  102.39   23.60
   0  22  16  110.69   20.50
 -22  16   0  166.28   33.90
   0  16 -22  101.29   38.90
   0 -22 -16  119.59   19.80
  22   0  16  139.99   25.90
   2 -22 -16   -5.30    7.30
  16 -22   2   -2.10    5.70
 -22  16  -2  -20.80   15.90
  -2  16  22   -1.60    7.20
 -16  22   2    3.30   14.90
 -22 -16   2    5.70   21.40
   2  16 -22    7.20   28.90
  22 -16  -2   -0.60    7.10
  16   2  22    1.70   10.10
   2  22  16    6.20   10.00
  -2 -22  16   -1.00    4.60
  22  -2  16   -8.90   11.40
  22  -2  16   -2.10    5.00
  -2  22 -16    0.30   20.30
  -2 -16 -22   -0.10    7.80
   2 -16  22   -1.50    4.40
 -22   2  16    5.60   25.30
 -16  -2  22   14.60   22.10
 -22 -16  -2   -4.80   20.50
   2 -16 -22    1.20    8.50
  -2  16 -22  -11.70   27.00
  22 -16   2    4.50    7.70
 -22  -2  16    2.50   24.90
   2  16  22    4.30    9.20
 -16  -2 -22   -1.20   10.40
  16  -2  22   -3.10   10.50
 -16 -22   2   -4.80    9.70
  -2  22  16    3.50    9.80
 -16  22  -2   -4.70   16.70
   2  22 -16  -14.50   22.80
  16 -22  -2    1.40    6.30
  -2 -22 -16    6.40    9.10
 -22  16   2    2.60   14.20
  22   2  16    4.50   12.80
  -2 -16  22    1.90    4.50
 -22   4  16  152.88   46.80
  22  -4  16   60.69   13.10
 -16  -4  22   54.09   22.40
   4  16 -22   73.19   36.50
  -4 -22  16   70.89   12.30
 -22  16  -4   70.49   26.10
 -22  -4 -16   57.29   36.60
  16   4  22   88.49   19.80
 -22 -16   4  114.89   31.70
  -4  22 -16   37.70   27.70
  -4  22  16   72.09   16.10
   4 -22  16   67.69   12.00
   4  22 -16   62.09   28.80
  16  -4  22   74.59   20.70
  -4 -22 -16   39.60   14.70
 -16  22  -4   59.99   24.90
 -22  16   4   87.69   24.00
 -16  -4 -22   67.79   20.10
  -4  16 -22   29.80   32.60
  22   4  16   74.69   21.50
  22 -16   4  100.39   16.30
  16 -22   6   13.60    7.60
  22  -6  16   24.40    9.40
   6  16 -22  -18.70   30.10
 -22  16  -6    3.60   20.00
  22 -16  -6   14.90   12.80
 -16  -6  22   19.20   15.70
   6  22  16    5.20    9.80
   6 -16  22    5.30    5.70
 -16  22   6   14.30   12.90
  -6 -16 -22   11.00    9.90
  -6  22 -16   -5.00   21.90
  -6  16  22    8.30    8.70
 -22   6  16   13.70   30.10
  16   6  22    6.00   11.10
 -16 -22  -6    0.40    9.70
  -6  16 -22   -1.10   26.20
   6  22 -16    3.40   23.70
 -22  -6  16   11.30   22.30
 -22   6 -16   -0.50   32.10
  -6 -22 -16    2.70   10.70
 -22  16   6    9.40   12.30
   6  16  22    1.50    9.30
  -6  22  16   14.40   10.50
  16 -22  -6   12.40    7.60
 -22 -16  -6   11.00   23.30
  16  -6  22   11.50   12.30
  16  -6  22   14.00    9.30
  22   6  16   -0.10   12.40
 -16  -6 -22    5.70   11.00
  22 -16   6   12.70    8.70
  -6 -16  22    9.70    7.30
 -16 -22   6   -0.90    9.80
 -16  22  -6   -1.50   19.60
  -8 -22  16  156.18   23.50
 -16  22   8  200.48   27.80
 -22 -16   8  171.58   36.10
  -8  22 -16  249.08   49.99
 -16  -8  22  201.08   32.20
 -22  16  -8  224.28   49.30
  16   8  22  193.98   30.10
 -16 -22   8  193.98   27.60
 -16  22  -8  142.39   42.10
   8  16  22  164.78   27.20
 -22   8 -16  216.48   57.89
  16  -8  22  168.58   30.00
  -8 -16  22  169.08   24.20
 -10  16  22   40.60   12.90
  10  22  16   31.60   12.20
  22 -10  16   38.00   11.10
 -22 -16  10   33.40   20.40
  16  10  22   44.30   14.50
  22 -16 -10   49.10   11.20
 -10 -22  16   17.10    9.40
 -22  10  16    6.50   35.90
 -22  16 -10   47.10   30.20
 -10  22 -16   62.29   33.10
 -10 -16 -22   33.10   12.80
 -16  22  10   18.60   12.00
 -22 -16 -10   11.40   24.10
 -22 -10  16   17.80   21.30
  16 -10  22   39.70   11.60
  10 -22  16   30.30    8.70
 -16  22 -10   11.10   24.70
 -16 -10 -22   20.70   14.30
  22 -16  10   51.09   12.20
  16 -22 -10   39.70   11.90
 -10  22  16   48.30   13.90
  10  16  22   30.80   13.30
  16 -10  22   28.10   15.40
 -22  10 -16   32.40   35.30
 -10  16 -22    5.10   33.50
 -16 -12  22  119.49   21.50
  12  22  16   85.89   19.10
 -16  12 -22   80.29   40.70
 -12  16  22   71.29   18.10
 -12 -16 -22   73.09   20.90
 -22  12  16   76.29   45.60
  22 -12  16   65.59   15.50
 -12  22 -16   76.29   36.80
 -22  16 -12   87.69   35.10
 -16  22  12   88.39   20.60
 -12  16 -22  155.38   46.90
  12  16  22  113.39   21.50
 -12  22  16  115.09   20.60
 -22  12 -16  123.59   45.10
  16 -12  22   72.09   14.80
  22 -16  12   98.79   16.90
 -16  22 -12   77.19   32.90
 -16 -12 -22   71.79   22.00
  16 -22  14   43.50   10.70
 -14  22 -16   85.29   36.20
 -16  22  14   62.89   17.10
  14  22  16   63.59   16.80
 -16  14 -22   40.10   37.90
  16  14  22   90.89   20.50
 -14  16  22   54.99   15.50
 -22  16 -14   36.10   32.30
 -14 -22 -16   42.10   17.40
 -16  14  22   49.50   16.20
  14 -22  16   46.00   10.60
 -16 -22  14   63.49   15.20
  16 -14  22   52.39   11.80
 -22  14 -16  143.89   43.50
 -16  22 -14  110.89   37.60
 -22  16  14   -6.70   37.60
 -16 -14 -22   47.90   17.40
  14  16  22   54.49   16.40
 -14  16 -22   31.30   38.20
  16 -22  16   90.59   14.80
 -16  16  22   64.99   20.10
 -16  16 -22   68.09   41.50
  16  16  22   79.79   22.30
 -22  16 -16   45.60   36.30
 -16 -22  16   87.29   17.60
 -16 -16 -22  114.59   25.00
  16  22  16  126.19   26.00
  22 -16  16  124.39   19.90
 -16  22 -16  168.28   44.80
  16 -16  22   88.49   15.10
   0 -22  18  270.17   28.20
  18   0  22  231.68   34.20
  22   0  18  195.68   28.20
  22   0  18  252.67   36.60
 -18   0  22  291.47   48.10
  22 -18   0  211.48   30.20
   0 -18  22  234.68   27.80
 -22  18   0  259.27   41.00
 -18  -2  22   37.30   23.30
  -2  22 -18    2.00   24.40
  -2 -22  18    8.80    5.90
 -22 -18   2   -0.30   18.50
 -22  18  -2   26.60   21.10
   2  22  18    8.00   10.80
  22  -2  18    9.00    6.70
 -18  22   2   13.00   16.00
   2  18 -22   -5.00   28.80
  18   2  22   15.40   11.90
  -2  18  22   24.50   11.20
  -2 -18 -22   15.30    8.70
 -22   2  18    0.10   26.30
   2 -22 -18    9.10    9.40
  22  -2  18    9.20   14.20
  18 -22   2    8.40    7.80
   2  18  22   19.60   10.60
 -22 -18  -2   18.20   20.90
  -2 -22 -18   19.50   10.10
  22 -18   2   33.10   11.10
 -22  -2  18   14.60   25.00
   2 -22  18   20.60    7.20
   2  22 -18   19.60   28.00
 -18  -2 -22   23.00   14.10
  -2 -18  22    1.40    4.90
  -2  18 -22   20.10   31.10
  18  -2  22   10.90   12.60
   2 -18 -22   14.90    9.40
 -22  18   2    9.30   15.20
 -18 -22   2   19.30   13.50
  -2  22  18   24.50   11.60
  22   2  18   10.10   14.60
 -18  22  -2   14.00   19.50
  22  -4  18   83.89   23.70
  18   4  22  110.39   20.90
  -4 -22  18   75.19   12.50
 -18  -4  22   65.49   24.20
   4 -18  22   65.39   12.20
   4  18 -22   92.19   38.00
 -22   4  18   55.19   35.10
  -4  22 -18   81.69   33.60
 -18 -22  -4   68.29   20.80
 -22 -18   4  124.69   30.40
  -4  18 -22  101.89   39.50
 -22  -4  18   33.50   25.80
 -18  -4 -22   46.30   17.40
  22   4  18   90.99   25.20
   4  22 -18   99.39   36.20
 -18  22  -4  144.69   33.60
  22 -18   4   72.09   15.80
 -22   6  18   37.10   33.20
 -18 -22  -6    8.00   12.20
  -6  18  22    6.80    9.60
 -22 -18   6   10.90   18.70
 -18  -6  22    6.20   16.30
   6  22  18    9.20    9.80
   6 -18  22   12.40    6.50
  22 -18  -6    4.50    7.80
  18   6  22    7.90   11.30
   6  18 -22    9.90   35.10
  22  -6  18    6.20    7.60
  -6 -18 -22   17.00   10.30
  -6  22 -18   -7.90   25.10
 -18  22   6    2.50   12.10
 -22  18  -6   11.70   21.50
  18  -6  22    1.40    8.60
  -6  18 -22   -7.10   28.90
   6  18  22    6.10   10.20
  -6 -22 -18    1.30   10.10
  18  -6  22   12.60   13.10
 -22 -18  -6   18.10   22.30
   6  22 -18   -6.00   28.50
  -6  22  18    9.00   10.40
 -18  -6 -22    5.70   12.50
  22   6  18   14.30   15.50
  22 -18   6    9.20    8.20
   6 -22  18    6.30    5.90
  -6 -18  22    4.30    6.50
 -18  22  -6    9.80   20.40
 -22  18   6    3.70   11.50
 -22  -6  18    5.80   21.20
  18 -22  -6    1.50    6.20
  -8  22 -18   74.39   39.30
  -8 -18 -22  128.69   23.60
 -18  -8  22  134.79   29.60
 -22  18  -8  157.88   45.50
 -18  22   8  119.39   23.20
  18   8  22  145.29   26.30
 -22   8  18   93.69   53.19
  -8  18  22  129.59   22.40
   8  22  18  161.98   24.20
 -22 -18  -8  166.88   37.90
 -22  -8  18   77.89   31.30
  22   8  18  205.08   32.50
 -22   8 -18  208.98   53.79
 -18  -8 -22  133.19   27.00
  -8 -22 -18   95.49   24.20
  -8 -18  22  162.38   21.00
  18  -8  22  152.98   28.50
   8  18  22  159.08   24.70
 -22  18   8   97.09   24.60
  -8  22  18  166.88   23.80
   8 -22  18  116.09   18.10
  18 -22  -8  169.88   22.00
  22 -10  18   19.20    9.60
  10  22  18   25.90   12.30
 -10 -18 -22   15.20   11.30
  22 -18 -10   31.40    9.50
 -10 -22  18   20.40    9.30
  18  10  22    6.60   12.40
 -22  18 -10   28.10   25.70
 -10  22 -18   15.80   28.50
 -10  18  22   13.40   10.30
 -18 -10  22   -1.60   12.80
  18 -22  10   21.60    8.40
 -18  22  10   11.50   11.20
  18 -22 -10   21.80    9.30
 -18  22 -10    6.70   24.90
 -10  22  18   17.80   10.80
  18 -10  22   23.90    9.90
 -22  10 -18   22.40   35.10
 -10 -22 -18   18.50   13.70
 -10  18 -22   23.60   34.30
 -18 -10 -22   23.20   14.10
 -22  18  10   19.20   13.60
 -10 -18  22   10.70    8.90
  22 -18  10   36.10   11.10
  10  18  22   14.10   11.70
 -12  18  22   95.49   26.10
 -22  18 -12   88.29   36.80
 -18  12 -22   54.69   39.60
  12 -18  22   53.59   10.80
 -12  22 -18   38.50   34.70
 -18  22  12   45.90   15.30
  18  12  22   58.09   17.70
  22 -12  18   66.89   14.70
  18 -22  12   54.39   14.30
  22 -18 -12   61.19   13.00
 -12  18 -22   37.20   62.79
 -18 -12 -22   42.80   17.50
 -12  22  18   77.49   17.70
 -18  22 -12   75.99   31.90
 -22  18  12   40.80   15.00
 -22  12 -18   99.09   53.99
  22 -18  12   38.80   12.30
 -14 -18 -22   47.10   16.40
 -14 -22  18   65.39   13.90
 -18  22  14   30.30   13.50
  18 -22  14   41.30   11.00
 -22  18 -14   40.60   31.80
 -14  22 -18   55.29   35.70
 -18  14 -22   53.39   40.90
  18  14  22   65.99   19.00
  14  22  18   57.39   17.50
 -18  22 -14  109.69   38.10
  14 -22  18   54.29   10.70
  22 -18  14   37.80   11.80
 -22  14 -18  155.28   49.90
 -18 -22  14   25.60   12.90
 -14  22  18   53.49   14.70
 -14  18 -22   32.90   37.70
 -14 -22 -18   82.19   23.10
  14  18  22   71.79   21.40
 -22 -14  18   89.79   24.60
 -22 -18  16   66.99   20.90
  16 -18  22   54.09   11.80
 -16 -18 -22   49.99   18.20
 -18 -16  22   74.59   17.00
 -22  18 -16   64.19   35.60
 -16 -22  18   47.10   13.90
 -16  22 -18   90.49   38.90
 -18  16 -22   28.70   38.30
  18  16  22   84.39   25.10
 -16  18  22   68.89   18.80
 -22  16 -18   79.79   40.20
 -16 -22 -18   91.69   25.60
 -18 -16 -22   25.50   16.70
  16  18  22   89.89   23.30
 -16  18 -22  101.89   41.60
 -18  22 -16   68.79   35.30
 -22 -18  18   45.30   16.50
 -22  18 -18   76.09   39.10
  22 -18  18   91.79   15.50
 -18 -18  22   71.79   16.80
 -18  18 -22   89.29   43.50
  18  18  22   69.09   20.60
 -18  22 -18   58.89   36.40
  18 -22  18   72.49   13.10
 -22  20   0   27.70   19.80
  22 -20   0   43.00   13.60
   0 -22 -20   52.99   15.30
   0  22 -20   81.89   35.20
   0  22  20   70.29   18.80
 -20  22   0   52.29   21.90
  22   0  20   68.89   20.00
  20 -22   0   77.59   14.80
   0  20 -22   57.89   35.80
   0  20  22   50.09   14.70
  20   0  22   38.00   16.30
 -20   0  22   50.89   27.50
 -22   0  20   19.10   26.70
 -20  22   2  507.25   61.89
  22  -2  20  528.75   60.39
  20 -22  -2  492.05   54.79
  22 -20   2  460.65   54.69
  22   2  20  541.65   60.59
   2 -22  20  406.26   51.59
  -4 -22  20  995.50  107.89
   4  20 -22 1055.19  133.89
  -4 -20 -22  915.91  109.49
 -20  -4  22 1274.37  124.29
 -20  22   4  930.21  112.89
   4  22 -20 1140.09  130.69
  22 -20   4 1094.39  111.19
 -20 -22   4 1045.30  114.89
  20   6  22  664.43   72.29
  22 -20  -6  558.94   67.59
 -20 -22  -6  559.14   73.39
  -6  20  22  604.04   68.99
  20 -22   6  614.44   67.79
   6  22  20  506.65   68.69
  22   6  20  684.33   73.89
  -6  22  20  679.13   70.29
  20  -6  22  588.84   72.29
 -20  -6 -22  730.83   74.09
  -6 -22 -20  657.93   69.39
   6 -22  20  591.04   65.99
   8  22  20  244.98   34.70
  20 -22   8  250.47   31.80
  -8  20  22  302.27   34.80
 -20  22   8  189.08   34.00
  20   8  22  293.57   38.90
  22   8  20  253.47   40.00
  -8  22  20  247.38   34.70
 -20  -8 -22  212.68   37.20
  20  -8  22  217.58   32.30
 -22  -8  20  259.17   44.30
 -20  22  -8  282.67   49.10
 -22 -20  -8  241.38   44.60
   8 -22  20  281.87   30.20
 -22   8 -20  313.07   72.89
 -22  20   8  281.57   35.90
 -10  22 -20  659.83   96.09
 -20  22  10  675.03   75.99
  22 -20 -10  624.74   72.59
  20  10  22  649.74   77.79
  10  20  22  751.62   77.49
  20 -22 -10  609.94   72.99
  20 -10  22  723.03   74.69
  22  10  20  725.23   82.89
 -12  22 -20  487.35   90.59
  12 -20  22  666.73   68.59
  22 -20 -12  630.04   70.09
  12  22  20  587.74   74.59
 -12  20  22  710.43   72.39
 -12 -20 -22  617.74   72.69
 -20  22 -12  789.32   90.79
 -22 -12  20  639.44   77.49
 -12  20 -22  626.84   96.39
  20  14  22  618.34   70.49
 -20 -14  22  640.04   67.49
 -20  14 -22  605.54   93.89
 -22  20 -14  421.66   81.89
  14  20  22  642.84   67.89
  22 -20  14  564.44   62.79
 -14 -22 -20  463.55   65.99
  22 -16  20  124.09   18.90
 -22  20 -16  105.39   38.80
 -16  20  22   86.99   21.80
 -16 -20 -22  111.39   25.70
  16  22  20  121.49   25.60
 -20  16 -22  159.18   50.39
 -16 -22  20  111.59   18.90
 -16  22 -20   83.59   40.20
 -20 -16 -22  123.19   27.60
  20 -16  22  104.09   18.00
 -22  16 -20   34.50   38.50
  16  20  22  104.39   26.30
 -16  20 -22   28.10   40.20
 -20 -22  16  126.79   20.80
  22 -18  20   62.59   13.50
 -18  20  22   54.59   16.60
  18 -20  22   65.69   12.60
 -18 -20 -22   85.69   24.00
 -18  22 -20   65.69   37.50
 -22 -20  18   56.59   16.30
 -20 -22 -18   45.30   19.10
 -20  22  18   34.20   15.30
 -22 -18 -20   32.10   17.80
 -20  18 -22   35.80   38.10
 -22  20 -18   27.30   32.70
 -20 -18 -22   48.10   18.50
 -20  22 -18   55.19   35.60
 -22  18 -20   48.20   38.60
 -18 -22 -20   17.70   16.40
 -18  20 -22  108.09   43.10
 -18  22  20   28.60   15.50
  18 -22  20   39.80   10.90
  20 -18  22   39.20   12.10
 -20 -20  22  619.14   62.69
 -20  22  20  570.14   69.29
  20 -20  22  523.65   60.29
  22 -20  20  501.55   60.69
 -22   0  22   57.39   29.40
 -22  22   0   15.90   17.90
   0 -22 -22   29.70   11.00
   0  22 -22   49.90   35.30
   0  22  22    7.30   11.70
  22   0  22   13.50   14.30
 -22  -2 -22  104.59   27.50
 -22  22  -2  145.79   33.30
 -22  22   2   75.39   23.10
  -2  22 -22  131.79   42.30
   2 -22  22   66.09   13.40
   2  22 -22   89.99   36.60
  22  -2  22  104.29   27.50
  22   2  22   98.69   25.10
 -22 -22  -4  782.22   84.19
 -22  22  -4  706.13   85.99
  -4  22  22  778.02   77.99
  22 -22  -4  765.92   76.69
  22 -22   4  585.64   75.19
  22   4  22  570.74   79.59
 -22 -22  -6  376.66   50.49
 -22 -22   6  236.48   41.20
  -6  22 -22  287.97   64.29
   6 -22  22  327.47   35.40
  22   6  22  298.77   42.80
 -22 -22   8   48.30   19.00
 -22   8 -22   69.29   43.60
 -22  22  -8   76.29   29.70
  -8 -22 -22   73.19   18.30
  -8 -22  22   66.39   13.40
  -8  22 -22   37.60   34.10
  -8  22  22   98.89   20.00
   8  22  22   73.19   19.40
  22 -22  -8   81.89   15.60
  22  -8  22   74.39   26.60
  22   8  22   83.19   23.10
 -22 -10 -22  150.78   30.00
 -22  10 -22  205.18   56.79
 -22  22 -10  146.99   39.10
 -10 -22 -22  170.68   25.60
 -10  22 -22  118.89   43.20
 -10  22  22  116.29   24.80
  10  22  22  105.79   24.20
 -22 -22  12  185.78   33.20
 -22 -12 -22  275.77   39.60
 -22  12 -22  391.06   73.19
 -22  22 -12  294.47   53.39
 -22  22  12  215.38   35.00
 -12  22 -22  371.46   71.89
 -12  22  22  237.98   34.00
  12 -22  22  257.67   29.30
 -22 -14 -22  295.27   47.50
 -22  14 -22  490.85   81.59
 -22  22  14  293.67   44.40
 -14 -22 -22  266.27   43.30
 -14  22  22  381.96   43.70
  14 -22  22  381.06   38.90
  14  22  22  358.66   46.10
 -22 -22  16   -0.20    9.00
 -22 -16 -22    4.40   15.10
 -22 -16  22    3.00   11.00
 -22  16 -22   -4.40   35.10
 -22  22 -16    2.60   27.60
 -16 -22 -22    7.60   12.90
 -16  22 -22   27.50   34.80
 -16  22  22   -3.30   10.50
  16 -22  22    0.30    5.20
  16  22  22    5.90   13.60
  22 -22  16    1.20    6.70
  22 -16  22   -2.10    7.50
 -22 -22 -18   11.00   16.50
 -22 -18 -22   17.60   16.40
 -22 -18  22    4.80    9.80
 -22  18 -22   -8.00   35.40
 -22  22 -18   18.70   31.30
 -18 -22 -22   -5.50   13.40
 -18 -22  22    0.00    8.30
 -18  22 -22   -1.20   32.80
 -18  22  22   -5.20   12.80
  22 -22  18    5.20    7.30
 -22 -22  20  460.85   53.39
 -22 -20 -22  550.44   61.99
 -22 -20  22  460.65   53.59
 -22  22 -20  624.14   85.69
 -20 -22 -22  394.16   58.59
 -20  22 -22  433.96   83.69
  20 -22  22  458.55   51.69
  22 -22  20  505.95   52.49
  22 -20  22  385.16   51.59
  -1 -23  -1  772.22   76.89
  -1 -23   1  775.32   76.89
  -1  -1  23  634.44   79.79
  -1   1  23  803.02   80.89
  -1  23  -1  775.02   85.69
   1  -1  23  760.62   80.89
   1   1  23  627.04   79.29
  -1 -23   3    1.80    4.20
  -1  23  -3   -8.20   14.30
 -23  -3   1   -3.70   27.10
  -3  23   1   -1.30   13.60
  -3  -1  23   -5.80    7.90
  -1   3  23    1.20    9.00
   1  -3  23   -5.00    8.70
   3   1  23    4.20    8.50
   1  23   3   -1.10   10.30
   3 -23   1   -0.70    4.80
   3  23  -1   -0.20   13.20
   3 -23  -1    2.20    4.70
   3  -1  23    0.70    9.20
   1   3  23   -2.60    9.00
  23  -3   1   -1.70    4.30
  -3 -23   1   -1.10    4.10
  -1  23   3    2.50   11.70
  -1  -3  23    2.90    8.70
   1  23  -3   -2.80   12.90
   3  23   1    4.80   11.10
 -23  -1   3  -10.10   27.10
  -3  23  -1   -5.20   13.70
   1 -23   3    1.70    4.40
  -3   1  23    2.70    9.10
  -1 -23  -3    1.60    9.90
 -23  -3  -1    2.00   26.40
  -3  -3  23  491.45   50.99
  -3   3  23  453.45   49.80
  -3  23  -3  439.76   56.59
   3   3  23  397.46   49.60
   3  -3  23  368.56   49.30
   3 -23  -3  373.86   45.80
   3  23   3  364.16   49.20
   3  23  -3  529.35   56.19
   1 -23  -5    5.40    5.00
  -1   5  23    3.00    8.80
  -1  23  -5   11.20   15.70
   1  -5  23    6.60   10.00
   5   1  23    2.60    9.30
  -1  -5 -23    7.00    7.80
  -1 -23   5    2.30    4.80
  -5  -1  23    8.90    9.90
  23  -1   5    0.60    4.40
  -5 -23  -1    3.50    5.20
  -5   1 -23    9.30    8.10
   5  23  -1    8.20   11.60
  -5  23   1   -0.10   14.10
 -23  -5   1    0.50   28.10
   1  23   5    2.00    8.80
  -5  -1 -23    4.90    7.70
  -5 -23   1    0.90    5.00
  -5  23  -1    7.90   15.80
  -1 -23  -5    5.80    4.80
  -1 -23  -5   10.50   10.80
  -1  -5  23    1.50    8.60
  -1  -5  23    2.90    5.20
  -1  23   5    2.80   10.00
  -5   1  23    9.80    9.40
   1 -23   5    5.70    5.10
   1  23  -5    2.50   15.50
   5  23   1    5.70   10.30
   5  -1  23   -3.10    9.30
 -23  -5  -1   -7.80   25.10
  23  -5   1    2.20    5.20
   5 -23  -1   -0.30    4.80
   1   5  23   -0.20    9.10
  -5  -3  23  670.73   70.79
  -3  -5 -23  625.04   67.99
  23  -5  -3  612.44   67.79
  -3   5  23  706.03   70.39
   3 -23  -5  566.94   66.29
  -5  23   3  522.35   72.09
   3  -5  23  646.14   70.29
  -5   3  23  609.84   69.49
 -23  -3   5  755.52   94.69
   5 -23  -3  689.33   66.99
  -3 -23  -5  553.64   70.29
   5  -3  23  684.73   70.89
  -3 -23  -5  572.64   65.69
   3  23  -5  664.83   75.69
  -3  -5  23  619.14   69.99
   5   5  23 1357.46  133.89
   5  -5  23 1295.97  133.89
  -5 -23  -5 1246.38  129.79
  -5  -5  23 1256.47  133.69
  -5  -5  23 1191.08  130.39
  -7 -23  -1  385.36   46.90
   1 -23  -7  402.76   49.10
  -7  -1  23  510.95   51.69
  -1  23  -7  390.86   56.69
  -7 -23   1  493.75   48.10
  -1 -23  -7  431.86   51.09
  -1  -7  23  396.26   50.49
  -7   1  23  469.45   51.69
  -1  23   7  490.75   50.89
  -7  23  -1  433.56   57.69
   7  -1  23  389.46   50.39
  23   1   7  352.66   46.20
   7   3  23   19.90   11.20
  23  -7  -3   16.60    7.60
 -23  -7   3   16.70   28.30
  -3  -7 -23   17.50    9.40
 -23   3   7   -0.10   30.40
  -7 -23  -3   14.70    6.90
  -7  -3  23   16.70   12.30
  -7  23   3   35.80   16.90
  -3   7  23   18.20   10.70
   3  -7  23   25.90   12.00
  -3 -23   7   32.10    8.30
  -3  23  -7   17.20   17.90
 -23  -3  -7    6.50   27.80
   7  23  -3   36.30   22.90
   3 -23  -7   25.60   11.20
   3  23   7   32.80   12.40
  -3 -23  -7   14.20   13.10
   3  23  -7   20.30   17.00
  -7   3  23   21.70   11.30
 -23  -7  -3   49.70   34.00
  -3  -7  23   16.70   11.10
  -7  -3 -23   17.70    9.80
 -23  -3   7   16.50   28.20
  -3  -7  23    7.10    5.00
  -7  23  -3    7.80   16.90
   3   7  23   15.20   11.00
  -3  23   7   40.00   12.80
   7  -3  23   18.30   11.60
   7  23   3   25.70   10.50
  -3 -23  -7   31.40    7.40
  -5 -23   7  136.09   18.10
  -5  23  -7  131.29   32.40
  23  -7  -5  101.49   17.10
   7   5  23  148.89   23.80
 -23  -7   5  186.48   45.70
 -23  -5  -7   65.29   39.40
  -7  -5  23  134.59   24.30
  -5  -7 -23   97.89   19.70
   5  -7  23  136.49   24.00
  -5  -7  23  145.29   23.60
   5   7  23  109.19   21.90
   7 -23  -5  109.69   16.70
   7  23   5  124.59   20.80
  -7   5  23  142.99   22.20
   5  23  -7  156.58   31.10
 -23  -5   7  166.68   44.30
  23  -7   5  101.69   18.10
  -7  23  -5  128.99   32.10
 -23  -7  -5  158.08   47.70
   7  -7  23   78.59   20.80
  23  -7   7   83.29   16.50
   7   7  23  129.99   20.90
   7  23   7  106.89   18.60
  23  -7  -7  107.69   16.40
  -7  -7  23  116.69   22.50
  -7  -7  23   95.09   18.00
  -7   7  23  104.29   20.20
  -9   1 -23  617.14   63.49
   1  23   9  489.05   63.99
   9   1  23  604.24   65.59
  -1   9  23  589.14   64.29
  -9  -1  23  622.34   65.89
  -1  23  -9  601.44   73.09
  -9   1  23  514.55   64.49
  -1  -9  23  664.53   67.09
   1   9  23  505.55   63.59
   9  -1  23  657.13   66.09
  -9  -1 -23  462.25   62.39
 -23  -9   3   18.80   26.50
   9   3  23    8.60   10.20
  -9   3 -23    0.10    7.80
  -3  23  -9    3.80   19.00
   9  23  -3   29.00   20.80
   3 -23  -9   17.00    9.00
  -9  -3  23    1.00   10.90
   3  23   9    9.30    9.70
 -23  -3  -9    9.30   30.90
  -3  -9 -23   13.10    8.80
  -3   9  23   10.40    9.20
  -9  23   3   17.10   15.60
   3  -9  23    9.80   10.90
   9 -23   3   11.30    6.80
 -23  -3   9   11.00   28.40
  -9  23  -3   20.00   18.60
  -3 -23  -9    0.60   10.10
   9  23   3    3.10    9.00
   3  23  -9   27.70   17.80
  -3  23   9    7.60   10.00
  -9  -3 -23   16.00    9.90
  -3  -9  23    9.10   12.00
  -3  -9  23   18.30    6.40
   9  -3  23   13.10   10.90
   3   9  23    2.60    8.90
   9 -23  -3   17.10    6.80
  -9   3  23   12.20   10.50
  -9 -23   3   11.60    7.30
  -5 -23   9   -1.00    5.10
   5  23   9   -6.00    8.30
  -5  23  -9   -4.20   18.10
   9   5  23    2.20    9.40
  -9  -5  23   14.10   15.00
 -23   5   9    2.70   29.70
  -9  23   5    3.90   12.10
  -5  -9 -23    2.20    8.40
   5  -9  23   -5.40    9.60
  23  -9  -5   -0.90    5.50
  -5   9  23   -2.00    7.90
  -9 -23  -5   -4.60    4.90
  -9  -5  23    4.10    6.30
 -23  -9   5   20.30   24.50
   5  -9  23    0.80    4.60
  -9  23  -5   -8.50   15.80
  -5  23   9   -0.30    9.80
   5 -23   9    0.20    4.80
   5  23  -9    2.90   16.00
  -9  -5 -23    0.00    8.30
  -5 -23  -9   -0.10   10.70
   5   9  23   -7.10    8.90
   9 -23  -5    1.80    4.70
  -9 -23   5    0.00    5.80
 -23  -5   9   -0.20   25.00
  -9   5  23   -3.10    8.70
   9  -5  23   -8.90    8.60
  -5  -9  23   -3.00   11.40
  -5  -9  23   -2.30    5.10
  23  -9   5   -0.50    6.40
 -23  -9  -5   -3.30   24.80
   9  23   5    7.00    8.80
  -9  23   7  234.78   33.50
 -23   7   9  296.57   63.09
  -9 -23  -7  290.57   36.10
   7  -9  23  287.97   36.30
  -7   9  23  260.87   32.50
   7  23  -9  215.88   42.10
  -7  -9  23  292.27   37.00
 -23  -9  -7  171.88   51.59
  23  -9   7  240.28   31.10
   9  -7  23  293.37   36.60
  -9   7  23  228.68   33.30
   9 -23  -7  222.68   29.30
   9  23   7  221.18   31.70
  -9   9  23  586.34   62.09
   9   9  23  548.45   62.79
   9 -23   9  572.04   59.19
   9  -9  23  472.25   63.49
   9  -9  23  505.95   58.79
   9  23   9  587.04   61.29
 -23   9  -9  575.24   82.79
 -23   1  11  173.18   49.60
 -11   1 -23  137.69   21.60
 -23 -11   1  159.78   43.00
  11   1  23  133.49   22.90
   1 -11  23  136.39   24.90
  -1  11  23  113.19   20.70
 -11  23   1  139.49   31.10
   1 -11  23  102.49   16.20
  -1 -11  23   96.49   15.60
 -23 -11  -1  100.79   37.70
   1 -23  11  108.29   16.00
  23   1  11  151.08   17.50
  -1 -23 -11   87.29   20.80
  -1 -11  23  110.49   24.50
 -11   1  23  137.29   24.10
  23 -11   1  133.49   19.70
  11  -1  23  114.59   22.60
 -11  -1 -23  144.59   21.90
   3 -11  23  164.08   28.00
 -23 -11   3  105.89   38.00
   3 -23 -11  118.39   22.60
 -11 -23  -3  171.08   22.60
  -3  23 -11  190.68   39.10
 -11   3 -23  173.18   24.00
 -23  -3 -11   88.49   41.70
  11   3  23  173.58   25.90
   3  23  11  159.78   24.70
  23 -11  -3  175.68   22.20
  23 -11   3  138.89   22.00
  -3 -11  23  151.58   19.70
  11  23   3  149.79   23.90
  -3 -23 -11  113.49   25.20
 -11  -3 -23  206.18   26.10
   3  11  23  172.58   25.00
 -23 -11  -3  147.59   44.30
  -3 -11  23  150.98   28.50
 -11 -23  -5  132.79   22.20
   5 -11  23  221.78   29.70
 -23   5  11  177.88   53.49
  -5  11  23  208.18   26.00
 -11  23   5  111.79   28.10
   5  23  11  162.48   25.50
 -11  -5  23  194.58   28.00
  -5  23 -11  100.59   33.40
  11   5  23  183.88   27.60
   5  11  23  168.28   26.90
  11  23   5  185.88   26.20
  11  -5  23  182.48   26.60
  -5  23  11  155.28   27.10
 -11   5  23  189.98   28.00
  -5 -23 -11  174.98   28.90
  -5 -11  23  176.08   29.50
 -23   5 -11  212.48   51.89
 -23  -7 -11   19.80   29.80
 -23   7  11  -11.70   30.10
   7  23  11   14.60    9.70
   7 -11  23   28.20    8.00
  -7  11  23   10.50    9.30
  11   7  23   23.80   12.00
  -7 -11 -23   13.30   10.00
   7 -11  23   22.50   13.50
 -23 -11   7    9.00   24.20
 -11 -23  -7   10.90    7.40
  -7  23 -11   14.20   21.30
 -11  23   7    5.20   11.80
  23 -11  -7   18.70    7.80
 -23  11  -7   18.90   23.90
 -11  -7  23   23.20   10.70
  11  23   7   15.00    9.50
   7  23 -11   22.60   21.00
   7  11  23   10.50   10.10
 -11  23  -7   27.30   22.60
 -23   7 -11   -6.80   29.40
  -7 -23 -11   10.20   12.00
  11 -23  -7   14.60    7.00
  11  -7  23   10.70   12.70
  23 -11   7   12.40    8.10
  -7 -11  23   13.90    8.00
 -11   7  23   21.90   11.50
  11  -7  23    7.20    5.60
  -7  23  11    5.90   11.10
   7 -23  11   31.70    9.00
  -7 -11  23   21.00   20.00
 -11  -7 -23   13.10   10.70
 -23  -7  11   12.90   24.60
 -23 -11  -7    7.20   25.70
 -11 -23   7   32.60   10.10
   9 -11  23  127.09   26.40
  11   9  23  176.38   26.50
  11 -23   9  146.89   20.10
  -9 -11 -23  128.19   23.60
 -23  -9 -11   99.39   42.30
 -23   9  11   88.49   44.30
  -9  23 -11  110.09   34.40
  -9  11  23  121.79   22.70
 -23  11  -9  192.78   50.09
  11  -9  23  124.19   25.90
 -11  -9 -23  156.08   25.00
  11  23   9  172.58   24.10
 -11   9  23  132.09   23.40
   9 -23  11  154.38   19.80
  -9  23  11  195.88   26.10
 -23   9 -11   84.09   39.80
  23 -11   9  125.09   21.40
   9  11  23  164.68   25.40
  11 -23  -9  166.98   21.10
  11  -9  23  177.28   20.60
 -11  23  -9   90.89   32.10
 -11  23  11    5.60    9.90
  11 -11  23   -1.20   11.40
  11 -11  23    2.20    4.90
  11  11  23    4.50    9.40
 -11 -23  11    0.30    6.90
 -23 -11 -11   35.90   31.10
 -11  23 -11    7.60   23.80
 -11  11  23    1.40    9.10
  23 -11  11    5.30    8.20
 -11 -11  23    8.00    8.20
 -11 -11 -23    5.00   10.20
 -23  11 -11    8.90   28.60
  11  23  11    3.50    9.40
 -23 -11  11   -5.80   20.50
   1 -13  23   61.49   17.80
  -1  23 -13   79.09   27.10
  -1  13  23   51.99   15.20
 -13   1 -23   45.20   13.40
 -13  23   1   23.50   18.10
  13 -23   1   37.00   10.60
  13   1  23   57.59   16.70
  23  -1  13   63.89   10.90
 -23 -13   1    0.70   24.00
   1 -13  23   41.20    9.30
 -23  13  -1   50.69   20.80
 -13 -23  -1   28.00   11.20
  -1 -13 -23   47.70   14.00
  13  -1  23   58.59   15.20
   1 -13 -23   34.50   11.60
  -1  23  13   31.80   12.90
 -13  23  -1   41.70   21.70
  -1 -13  23   71.39   18.60
   1  23 -13   93.29   28.00
 -23 -13  -1   -3.60   23.30
  23   1  13   42.00   17.20
 -13 -23   1   44.20   12.60
   1  13  23   55.09   15.80
 -13  -1 -23   70.29   17.40
 -23  13  -3  626.94   80.69
   3 -13  23  613.44   68.59
   3 -23 -13  578.24   70.29
 -13  23   3  592.54   75.99
 -23   3  13  827.72   99.69
  13   3  23  773.22   74.19
 -23 -13   3  617.84   85.79
   3  23  13  632.64   72.09
  -3  23 -13  723.83   85.29
  23  -3  13  561.24   68.89
  -3  23  13  600.24   71.59
   3  23 -13  753.62   83.69
  13  -3  23  712.23   73.69
 -23  13  -5  709.53   98.99
  -5  23 -13  964.00  104.29
  13   5  23  787.12   90.89
   5 -13  23  941.81   93.99
 -13  -5  23  929.01   95.49
   5 -13  23  777.62   87.09
  -5 -13  23  907.91   88.29
  23 -13   5  862.11   89.49
  13  -5  23  874.11   92.59
 -23   5 -13  656.83  110.49
 -13  23  -5  773.82   98.49
 -13  -5 -23  754.22   90.19
 -23  13  -7   96.79   32.20
  13   7  23   40.00   14.80
 -13 -23  -7   38.40   12.30
  -7  23 -13   11.30   25.10
 -23  -7 -13   57.29   36.10
   7 -13  23   37.90   16.40
  -7  13  23   42.60   12.60
   7  23  13   29.60   12.30
 -23   7  13   29.30   31.70
  -7 -13 -23   27.40   11.50
   7  13  23   57.79   15.40
 -23 -13  -7   17.30   27.70
  13  23   7   74.49   18.10
  13 -23  -7   57.39   11.70
 -13   7  23   65.39   16.60
  -7 -23 -13   17.80   14.90
  13  -7  23   49.99   16.60
  -7  23  13   40.50   13.60
   7  23 -13   21.20   21.90
 -13  23  -7   70.79   26.20
 -13  -7 -23   16.00   12.00
 -23  -7  13   37.90   27.20
 -23   7 -13   72.39   36.50
  -9 -13 -23    4.60   10.00
 -23   9  13    1.70   34.20
   9 -13  23   -2.30   12.30
  23  -9  13    2.50    6.60
 -23  13  -9   17.30   27.50
 -23  -9 -13   -1.50   28.10
  -9  23 -13   12.50   24.50
  13   9  23    4.10   10.80
   9  23  13    1.40    9.00
 -13  23   9   11.30   10.40
   9 -13  23    3.00    5.30
 -13  -9  23   -0.40    8.60
  -9  13  23    3.10    8.90
   9  13  23   -2.10    9.90
 -23   9 -13   23.10   32.60
  -9 -23 -13   13.20   12.40
  13  -9  23    4.80    6.10
 -23  -9  13    7.00   22.30
  23 -13   9   10.00    8.10
 -13  23  -9    4.50   19.80
  -9  23  13    0.80    9.60
   9 -23  13    6.80    5.80
  13  23   9   -0.70    9.90
 -23 -13  -9    4.10   26.60
 -13  -9 -23    1.50   10.00
 -13   9  23    7.90   10.90
  13  -9  23    5.30    9.70
  -9 -13  23    7.50    7.70
  13 -23  -9    8.00    7.20
 -13 -23   9    3.90    8.00
 -13  23  11  311.87   39.10
 -11 -13 -23  352.26   40.10
 -13 -11  23  232.88   36.70
 -23  13 -11  306.57   59.59
  13  11  23  342.17   40.60
 -11  13  23  283.27   37.60
  23 -11  13  302.17   36.80
 -11  23 -13  396.66   59.09
 -13  11  23  332.97   40.10
  13 -11  23  215.18   40.20
 -23  11 -13  373.56   66.49
 -13 -13  23  773.82   77.69
 -13  23  13  785.32   77.89
 -13 -23  13  623.74   74.99
  13  23  13  610.14   76.49
  23  -1  15   33.30   16.80
  15 -23   1   20.60    8.30
  -1  15  23   32.50   11.60
   1  23  15   27.60   11.90
  23  -1  15   29.20    8.80
 -15   1 -23   29.10   12.40
 -23 -15   1    1.90   22.10
   1 -23 -15   55.39   14.80
  -1 -15 -23   25.90   10.00
  -1  23 -15   22.80   23.10
  15   1  23   13.60   11.70
 -23  15  -1   10.50   19.30
  -1 -15  23   27.70    8.00
   1  15  23   31.20   12.10
 -15  -1 -23   30.20   13.00
  15  -1  23   29.80   13.00
  15 -23  -1   18.40    8.00
  23 -15   1   32.20   11.00
 -23 -15  -1   12.30   23.60
 -23  -1  15   41.40   27.60
  23   1  15   30.80   17.40
  -1 -23 -15   16.70   10.20
 -23  15   1   45.30   18.50
   1  23 -15   -6.30   20.70
 -15  23  -1   43.70   22.00
  -1  23  15   31.70   13.10
 -15 -23   1   26.30   11.20
 -23  15  -3  172.08   36.30
 -23  -3 -15   45.20   37.70
  23 -15  -3  111.99   17.70
  23  -3  15   74.39   14.30
 -15 -23  -3  118.99   19.80
 -23   3  15   88.79   38.70
  -3  23 -15  113.49   33.60
  15   3  23   81.59   21.10
  -3  15  23  110.29   19.30
  -3 -15 -23   71.69   16.90
   3  15 -23   59.69   34.80
  -3 -15  23  110.69   14.40
   3  15  23  102.39   19.80
 -23  15   3  115.49   25.30
  15  -3  23  117.29   22.40
 -15 -23   3   73.29   18.10
 -15  -3 -23   64.39   18.60
  23 -15   3   65.99   16.10
  23   3  15  113.19   27.00
   3  23 -15   41.50   27.10
  -3  23  15  109.49   21.20
  -5 -23  15   64.49   13.90
   5  15 -23   36.30   35.80
  23 -15  -5   96.89   16.20
  -5 -15 -23   87.59   17.80
 -23  15  -5   65.29   28.30
 -23  -5 -15   21.90   31.80
 -15 -23  -5  109.79   18.50
  15   5  23  103.69   21.40
 -15  23   5  132.99   24.90
  -5  23 -15  137.79   40.30
 -23   5  15   46.50   35.80
  -5  15  23   80.09   18.30
   5  23  15   96.99   19.60
 -23   5 -15   67.79   39.70
  -5 -23 -15  119.09   23.00
  -5 -15  23   81.79   14.20
  15  -5  23   98.89   21.70
  -5  23  15  118.19   20.70
  15 -23  -5   97.19   15.70
 -23  -5  15   75.99   33.10
   5  23 -15   39.30   27.90
   5  15  23   82.89   19.10
   7  15 -23   21.90   34.80
  -7 -15 -23   11.70   10.20
 -23 -15   7   11.80   21.60
  -7 -23  15   43.00   10.60
  -7  15  23   43.40   12.50
 -15 -23  -7   20.50   13.10
 -23  -7 -15    7.60   31.50
 -23   7  15   42.70   34.00
   7  23  15   54.49   15.70
  15   7  23   36.20   14.60
  -7  23 -15   45.70   27.00
 -15  23   7   17.10   12.90
 -23  15  -7   62.79   29.60
  15 -23   7   34.10    9.80
  15 -23  -7   52.19   12.10
   7  15  23   32.70   13.50
  15  -7  23   29.90   14.10
 -15  -7 -23   35.00   13.90
   7  23 -15   26.70   31.20
  23 -15   7   26.00   10.40
  -7 -23 -15   35.90   14.70
  -7  23  15   52.99   14.60
 -23 -15  -7   48.30   28.90
 -15  23  -7   26.40   21.90
   7 -23  15   28.10    8.60
  -7 -15  23   25.70    9.30
 -23   7 -15   28.70   35.50
 -15 -23   7   48.80   14.20
   9  23  15  131.89   23.40
 -23  15  -9  170.28   42.50
  -9 -23  15  179.38   21.80
  -9  23 -15  153.88   45.70
  -9 -15 -23  105.59   22.80
  -9  15  23  178.28   24.40
 -23   9  15   90.49   45.30
  15   9  23  139.49   25.80
   9 -15  23  115.79   18.90
 -15  -9  23  201.08   28.00
 -15 -23   9  157.68   23.30
 -23   9 -15  219.78   56.69
 -23  -9  15  114.69   35.40
  15  -9  23  152.48   27.90
 -15  -9 -23  167.58   26.70
  15 -23  -9  157.28   21.90
 -15  23  -9   83.19   32.30
  23 -11  15    4.20    7.80
  23 -15 -11    1.50    5.20
 -11  23 -15    9.70   26.60
  11 -15  23   -0.30    4.90
 -15 -11  23    3.70    9.80
  11  23  15   -0.90    9.70
 -11  15  23    2.40    9.10
 -23 -15  11   10.00   18.80
 -23  15 -11   15.10   29.80
 -11 -15 -23   -2.00    9.80
 -11 -23  15    4.60    7.10
 -23  11  15   10.70   37.20
  15  11  23   -5.60   10.10
 -15  23  11    3.10   10.40
  15 -23  11    3.10    6.10
  11  15  23    4.50   10.90
 -23  11 -15    2.20   31.90
  15 -11  23    8.00    7.20
  11 -23  15    1.20    5.30
  23 -15  11    1.00    7.60
 -23 -11  15    0.80   18.60
 -11  15 -23   -1.30   31.40
 -11  23  15    6.90   10.20
 -15 -11 -23    4.40   11.40
 -15 -23  11    2.00    8.10
 -15  23 -11    0.50   23.60
 -15  11  23   -2.70   10.80
 -11 -23 -15    5.60   13.50
 -11 -15  23    1.10    7.30
 -23  13  15  222.48   67.39
 -15  13 -23  263.27   65.99
 -15  23  13  321.67   38.80
  23 -13  15  297.37   35.40
  13  23  15  260.77   37.60
 -23  15 -13  261.07   58.79
 -13 -15 -23  238.38   37.50
  15  13  23  269.07   38.30
 -13 -15  23  315.57   36.30
  13  15  23  303.87   39.20
  15 -13  23  277.87   33.90
 -13  23  15  294.87   37.50
 -23  13 -15  303.37   65.39
 -15  15  23    5.10   11.50
 -23 -15  15   -2.60   16.70
 -15  15 -23   -6.10   34.50
  15 -23  15   -1.00    4.90
  15  15  23  -10.20   10.20
 -15 -15 -23   -4.50   10.90
 -23  15 -15   20.20   32.90
 -15  23 -15    0.90   28.80
  15  23  15    3.80   12.60
  23 -15  15   -2.80    7.70
 -15  23  15   -6.30    9.00
  15 -15  23   -1.00    5.70
  -1  23 -17  411.76   67.29
  23  -1  17  387.56   57.19
  17   1  23  500.25   55.59
 -23   1  17  395.66   70.89
   1  23  17  576.64   55.69
   1  17  23  421.16   52.59
  23   1  17  463.55   57.59
  -1  23  17  450.25   53.49
  -3  23 -17  139.19   37.30
 -23   3  17  142.19   43.70
   3  17 -23  126.49   44.50
   3 -17  23   92.59   15.10
  23  -3  17  114.39   26.70
  -3  17  23  110.09   20.30
 -23  17  -3   93.59   29.10
  23  -3  17  122.29   16.70
 -23  -3 -17   28.40   47.70
  -3 -17 -23   97.29   18.70
 -17  -3  23  125.09   29.20
   3  23  17  143.69   22.20
   3 -23 -17   83.99   19.10
  17   3  23  132.09   24.00
  -3 -23  17  109.99   15.30
 -17  -3 -23   75.19   21.80
 -23 -17  -3  133.39   36.00
   3  17  23  101.39   20.60
  -3 -17  23  114.49   15.40
  -3 -23 -17   82.29   19.10
  17 -23  -3   71.19   16.40
  -3  17 -23  169.58   46.70
  17  -3  23   96.29   24.60
  23   3  17   94.49   28.60
   3  23 -17   49.00   29.60
  -3  23  17  120.09   20.20
  -5  23 -17   -4.30   23.70
 -17  -5  23    7.80   16.30
   5  17 -23  -19.40   32.40
 -23  17  -5   -5.40   18.00
   5  23  17    0.10    9.60
  -5 -17 -23   -4.40    7.50
  17 -23   5   -0.10    6.30
  23  -5  17   -0.50    5.40
 -23 -17   5    9.90   20.20
  -5  17  23    3.20    8.60
 -17 -23  -5    3.00   10.40
  17   5  23   -0.20    9.80
 -17  23   5    0.20   12.40
 -23  -5  17    4.20   22.10
  23 -17   5   -0.80    7.40
 -17 -23   5   -1.00    9.70
 -17  23  -5    1.00   18.60
 -23   5 -17  -27.00   31.40
   5  23 -17    0.20   25.50
  23   5  17   -9.30   15.40
   5  17  23   -0.60    8.90
  -5  17 -23  -19.90   27.90
 -17  -5 -23    8.00   12.20
 -23  17   5    2.00   13.10
  -5 -17  23    0.60    5.00
 -23 -17  -5   -1.00   20.60
  17 -23  -5    0.40    6.40
  17  -5  23    4.10   11.70
  -5 -23 -17    0.30   10.00
  -5  23  17    0.40    9.70
  17 -23   7  366.96   44.10
  17   7  23  390.26   49.30
 -17  -7  23  437.36   53.19
  -7  23 -17  392.86   66.29
 -23   7  17  499.75   78.09
   7  23  17  436.86   47.70
  23 -17  -7  417.26   45.20
  -7  17  23  408.16   46.70
  -7 -23 -17  335.27   47.50
 -23 -17  -7  400.76   62.79
   7  17  23  441.96   48.60
 -23   7 -17  364.66   78.39
 -17  -7 -23  388.26   49.20
  23 -17   7  319.97   45.00
  17  -7  23  366.36   49.60
  17   9  23  818.12   96.29
 -23   9  17  738.23  119.29
  17 -23   9 1018.90   93.29
  23 -17   9  936.71   94.59
  17 -23  -9  900.91   94.29
 -23   9 -17  715.33  115.39
 -17  -9 -23  743.73   96.09
  17  -9  23  993.20   95.09
  17  -9  23  882.51   98.39
 -23 -17  11  122.39   30.70
  17  11  23  165.68   27.80
 -17  23  11  123.29   25.30
 -11  23 -17  173.98   49.20
 -17 -11  23  131.29   24.80
 -23  17 -11   87.39   37.80
 -11 -17  23   95.29   19.60
 -17 -11 -23  132.59   26.20
  17 -11  23  147.79   21.10
 -23 -11  17  130.09   33.80
 -11  23  17  167.38   26.10
 -11 -23 -17  139.99   27.20
  11 -23  17  151.98   18.60
  11  17  23  104.79   23.40
 -11  17 -23  104.29   45.30
 -23  11 -17  106.79   46.30
 -17  23 -11  130.79   38.60
  13 -17  23   -1.20    5.00
 -13 -17 -23   -9.00    9.40
 -23  17 -13   -7.10   26.90
 -13 -23  17    1.10    7.30
 -17  13 -23    2.50   35.40
 -13  17  23    2.30    9.20
 -17 -13  23    5.80   10.20
 -17  23  13   -2.50    9.30
 -23 -17  13   -2.20   15.00
 -13  23 -17   -3.30   27.80
  13  23  17    2.30   11.10
  17  13  23   -7.50   10.80
 -13 -23 -17   -0.90   14.00
 -17 -13 -23   -5.80   10.70
 -17  23 -13    2.90   26.60
 -13  17 -23   -8.40   34.40
 -13 -17  23   -0.80    7.10
 -13  23  17   -6.00   10.30
  17 -13  23   -1.30    6.80
  13  17  23   -4.50   10.90
 -17 -23  13    1.80    8.80
 -23  13 -17   12.10   33.90
  17  15  23  105.49   28.90
  17 -23  15   97.39   15.10
  15  23  17  115.49   25.70
 -23  17 -15   95.59   39.70
  15 -17  23   78.09   14.50
  15  17  23  128.69   25.30
 -23 -15  17   68.99   22.70
 -17  15  23  121.29   24.30
 -17 -15 -23  105.89   24.30
 -15  17 -23   40.50   40.10
  15 -23  17   73.59   13.90
 -15 -23 -17  125.39   27.00
 -23  15 -17   76.89   41.50
 -17  23 -15  122.39   39.00
 -17 -23 -17  194.78   36.80
 -17 -23  17  271.57   31.30
 -23  17 -17  189.08   57.79
 -23 -17  17  235.58   35.50
  23 -17  17  186.78   29.40
 -17 -17 -23  303.07   37.10
   1 -23 -19   61.29   16.30
   1  23  19   59.39   17.20
   1  19 -23   27.90   33.70
 -23  19  -1   26.10   20.40
 -19  -1  23   10.60   28.00
  19 -23   1   38.60   12.10
  23  -1  19   34.90   18.50
 -19 -23  -1   46.60   17.20
  -1  23 -19   36.40   28.90
 -23   1  19    8.20   28.70
   1 -19  23   23.10    8.50
  19   1  23   56.19   17.00
 -19  23   1   10.00   18.20
  -1 -19 -23   52.79   12.80
  -1  19  23   47.50   13.90
   1  23 -19   49.10   33.70
  -1  19 -23   39.60   34.50
 -19 -23   1   23.50   14.70
  19 -23  -1   35.30   11.30
   1  19  23   44.90   14.20
 -23  19   1   72.39   22.00
 -19  -1 -23   39.20   16.10
 -19  23  -1   18.10   19.80
   1 -19 -23   24.30   11.30
  19  -1  23   61.99   17.90
  23   1  19   37.30   18.10
  19   3  23  149.19   28.30
   3  23  19  164.48   25.90
  23  -3  19  141.69   30.90
  -3  19  23  144.69   25.00
  23  -3  19  130.49   21.20
   3  19 -23  143.89   49.10
 -23   3  19   71.59   38.80
  -3 -23  19  162.58   20.20
  -3  23 -19  238.78   49.99
 -19  23  -3  170.08   37.20
  23   3  19  221.38   33.30
  -3 -23 -19  138.79   23.80
   3  19  23  180.98   26.40
  19  -3  23  166.18   29.10
  -3  19 -23  121.09   44.70
 -23  -3  19  230.58   43.90
   3  23 -19  268.67   55.19
  19 -23  -3  129.89   22.30
 -23   5  19  204.98   55.89
  19   5  23  206.48   33.60
 -23  19  -5  255.97   46.50
   5  19 -23  224.28   58.79
  -5  19  23  221.18   31.60
  -5  23 -19  270.57   54.99
   5 -19  23  260.27   28.30
 -23 -19  -5  176.98   41.70
  23   5  19  249.08   40.00
 -19  -5 -23  171.38   33.50
   5  23 -19  255.17   56.19
  19  -5  23  177.88   35.20
 -23  19   5  277.47   35.70
  -5  23  19  271.27   33.90
  -5  19 -23  198.58   54.79
 -23  -5  19  292.87   47.00
  23  -7  19    2.00    7.60
 -23 -19   7    1.90   16.10
 -19  23   7    3.40   11.30
  -7  19  23    0.70    8.60
   7  23  19   -2.60   10.40
  -7  23 -19    1.50   25.90
  19   7  23   -3.10   11.60
  23 -19  -7    2.20    7.20
 -23  19  -7  -10.40   20.70
  -7 -23  19   -3.10    5.60
  -7 -19 -23   -1.20    7.70
 -19  -7  23   -5.70   15.00
  23   7  19    9.10   23.70
  19  -7  23   -2.20   12.60
   7  19  23   -5.00    9.70
   7 -23  19    0.10    4.80
 -19  23  -7   -1.60   20.60
  -7  23  19    1.00   10.30
  -7 -23 -19    0.40   10.30
 -23  19   7   -9.80   10.80
 -19  -7 -23  -13.40   11.10
 -23  -7  19    0.80   19.00
 -23   7 -19    1.50   35.40
  23 -19   7    3.10    8.10
  19 -23  -7    2.00    7.10
  -7  19 -23  -10.20   30.90
 -23 -19  -7  -12.80   18.40
  19   9  23   14.80   13.90
   9 -19  23    7.00    5.70
 -19  -9  23    9.10   14.10
 -19  23   9   10.20   11.60
  -9  23 -19   39.90   39.30
 -23 -19   9   21.60   17.80
 -23  19  -9    5.10   23.70
   9  23  19   19.70   11.60
  -9  19  23   12.60   11.60
  -9 -19 -23   22.60   11.80
  23 -19  -9   11.80    7.60
 -23   9 -19    6.20   35.00
 -23  19   9   22.40   13.90
 -19  -9 -23    3.90   12.30
  19 -23  -9   19.00   10.30
  -9 -23 -19   13.30   20.60
  19  -9  23   15.50    9.80
  -9  19 -23   13.70   56.49
   9  19  23   14.10   12.60
 -11 -19 -23   58.09   17.70
 -11  23 -19   62.69   36.50
 -19 -11  23   44.40   16.30
  19  11  23   52.89   17.40
 -23  19 -11   64.09   30.70
  23 -11  19   42.80   13.70
 -19  11 -23   50.09   40.40
 -11  19  23   38.30   13.40
 -23 -19  11   79.09   24.10
  19 -23  11   38.70   11.30
 -11  23  19   47.00   14.50
  23 -19  11   51.39   14.10
 -23  11 -19   -1.70   53.29
 -19 -23  11   38.50   14.70
 -11  19 -23   11.20   36.40
  11  19  23   43.10   14.50
 -19  23 -11   54.29   29.30
 -19  23  13  201.58   29.40
  19 -23  13  153.08   23.20
 -23  19 -13  123.59   41.30
 -13  23 -19  197.48   53.59
 -23 -19  13  156.48   30.90
 -13  19  23  213.78   29.20
 -19  13 -23  168.98   52.89
  13  23  19  200.58   30.70
  19  13  23  237.58   33.30
 -13 -19 -23  190.28   29.10
 -13 -23 -19  139.19   30.30
 -19 -13 -23  144.19   30.40
 -23  13 -19  176.38   52.99
  13  19  23  168.68   30.60
 -13 -19  23  212.68   26.20
 -13  19 -23  219.88   60.09
  15 -19  23    6.10    6.00
 -15  19  23    8.70   10.60
 -23  19 -15    8.60   30.80
 -19 -15  23   21.10   11.90
 -15 -23  19   -0.40    7.60
 -15  23 -19    2.30   32.50
  19  15  23   10.60   14.10
 -19  23  15   -3.40   11.00
  15  23  19    3.80   12.50
 -15 -19 -23   -3.20   11.60
 -19  15 -23   -6.00   35.00
 -23 -19  15   -1.30   11.80
  19 -23  15   10.30    6.90
  23 -15  19    9.10    7.70
  15 -23  19    7.20    6.20
 -15 -19  23   20.00   10.00
 -15 -23 -19    4.20   13.90
 -15  23  19    3.50   11.00
 -19 -15 -23   -6.30   12.60
 -19  23 -15    1.90   26.70
 -23  15 -19    3.70   36.20
 -23 -15  19   26.40   16.50
  15  19  23    6.80   12.90
  23 -19  15   16.70    8.80
 -15  19 -23    2.60   33.80
  19 -15  23    1.00    6.90
 -19 -23 -17   89.29   23.50
  19 -23  17   88.29   14.20
 -19  23  17  107.99   22.70
 -17  19  23   57.29   18.10
 -23 -19  17   50.79   17.00
  23 -17  19   92.79   16.00
 -23  19 -17  172.98   46.50
  19  17  23   84.79   23.40
 -19  17 -23   76.29   41.00
 -17  23 -19   40.00   36.60
  17 -23  19   83.29   13.40
 -17  19 -23   68.99   43.60
 -19  23 -17   99.59   36.80
  17  19  23   71.59   21.60
 -19 -17 -23   43.70   18.40
 -17  23  19   64.29   17.90
 -23  17 -19   46.30   36.70
 -19 -23 -19    8.40   16.20
 -23  19 -19   32.40   33.40
 -19 -19 -23    6.50   14.50
 -19  23 -19  -12.70   29.10
 -19  23  19   25.60   15.20
  19 -23  19   12.10    7.20
  19 -19  23   13.30    7.80
  23 -19  19    6.40    7.30
 -19  19 -23   14.60   38.90
 -19 -23  19   12.40    9.20
  21 -23   1   -0.80    7.00
   1  21 -23   18.50   34.20
 -23  21  -1    9.30   17.90
  23 -21  -1    5.40    8.00
  21   1  23    2.70   13.90
 -23  -1 -21   -4.00   14.80
  -1  21  23    1.10    9.80
  -1 -23  21    3.90    6.70
  -1  23 -21  -30.00   24.90
 -23   1  21   40.70   31.60
   1 -23 -21    0.60    9.00
  23  -1  21   -5.00   13.50
   1  23  21    5.10   10.40
 -21 -23  -1   -4.80   11.30
 -23 -21   1   10.30   16.70
  -1 -21 -23   -7.50    8.00
 -21  23   1  -10.80   14.30
   1 -21  23    0.70    5.20
  -1  21 -23    0.70   31.10
   1  23 -21    5.20   28.80
 -23  -1  21   14.80   24.00
 -23  21   1    4.20   16.70
   1  21  23    6.40   11.40
  23   1  21  -10.50   13.20
 -23 -21  -1   -0.70   14.20
 -21  23  -1    7.30   17.80
 -21  -1 -23    9.30   13.60
  -1 -23 -21   -2.00    8.00
  -1  23  21   -3.10   10.40
  21  -1  23    4.40   13.50
 -21  23   3  350.36   42.80
 -23 -21   3  188.28   45.40
 -21  -3  23  256.67   47.30
   3  23  21  249.88   35.60
  -3  21  23  295.27   35.90
  23  -3  21  276.17   42.80
 -23  -3 -21  257.07   43.80
   3  21 -23  346.67   66.09
   3  23 -21  286.07   59.69
 -21 -23   3  196.18   42.30
 -21  23  -3  284.17   46.10
  21 -23  -3  224.28   32.90
  23   3  21  297.87   43.20
   3  21  23  266.77   35.60
 -23  -3  21  217.28   47.80
  -3  23  21  332.17   38.20
  21  -3  23  255.57   40.00
  21   5  23  478.15   56.69
  21 -23   5  485.75   51.49
  23 -21  -5  414.16   50.99
 -23  21  -5  474.75   63.19
 -21  23   5  352.46   53.39
  -5  21  23  416.26   51.99
 -23 -21   5  412.86   57.59
  -5  23 -21  311.37   69.29
  -5  23  21  486.95   53.49
  23   5  21  454.05   59.09
 -21  23  -5  556.24   90.79
   5  21  23  519.35   53.89
  -7  23 -21   99.29   37.80
   7  23  21   98.09   19.70
 -21  -7  23   75.39   24.60
 -23  -7 -21   33.60   18.10
   7 -21  23   88.99   12.80
 -23  21  -7   39.80   24.90
 -23 -21   7   82.59   24.00
 -21  23   7  115.19   31.20
  -7 -21 -23   42.60   13.90
  23 -21  -7   57.69   14.20
  23  -7  21   65.99   17.70
  -7  21  23   67.09   18.90
  21 -23   7   64.79   14.90
  21   7  23   43.50   18.20
   7 -23  21   72.99   12.30
 -21 -23   7   75.79   19.50
  -7  21 -23   56.09   36.40
 -23  21   7   41.90   15.80
  -7 -23 -21   70.19   18.10
 -23   7 -21   76.89   73.09
 -23 -21  -7   73.69   26.10
  21 -23  -7   57.49   14.60
 -21  23  -7  107.49   29.80
   7  21  23   77.79   19.60
 -21   9 -23   20.10   38.70
  -9 -21 -23    5.70   10.30
   9  23  21   36.40   13.90
  23  -9  21   44.60   12.80
 -23  -9 -21   30.00   17.20
 -23  21  -9   59.99   28.10
 -21  23   9   14.50   13.00
  21 -23   9   46.00   12.20
  -9  21  23   31.30   12.50
  -9  23 -21   28.40   33.80
   9  21  23   27.90   13.50
 -23   9 -21   29.00   39.30
 -21  23  -9   -5.40   22.30
  21 -23  -9   19.10    9.00
  -9  21 -23   45.30   37.30
 -23  -9  21   11.50   17.70
 -21  -9 -23   12.00   13.90
  -9 -21  23   34.50   10.30
  -9  23  21   21.40   12.30
  -9 -23 -21   26.60   12.50
 -11 -21 -23  184.48   31.60
 -11  23 -21  221.58   60.79
  23 -21 -11  228.98   29.20
 -23 -11 -21  171.58   36.70
 -21  11 -23  260.47   63.49
 -11  21  23  206.98   31.00
 -21 -11  23  215.48   35.10
 -11 -23 -21  168.08   31.80
  23 -21  11  239.58   29.70
  21 -11  23  239.18   30.90
 -23  11 -21  216.68   65.49
 -11 -21  23  251.47   29.80
 -21  23 -11  164.48   46.70
 -21 -23  11  251.27   32.90
 -11  23  21  281.87   33.40
  13  23  21  383.16   52.49
  23 -13  21  364.96   49.40
 -21  13 -23  281.37   76.79
 -21 -13  23  463.55   53.99
 -23 -13 -21  493.35   57.39
  21  13  23  480.15   57.49
  21 -13  23  445.96   50.89
 -23 -13  21  404.26   54.69
 -13 -23 -21  512.15   54.49
 -21  23  15   35.60   15.90
 -23 -21  15   49.10   16.50
 -23  21 -15   66.39   33.90
 -15  21  23   58.39   15.90
 -21 -15  23   54.89   17.10
 -23 -15 -21   19.20   16.90
 -15  23 -21   54.89   35.80
  23 -15  21   49.20   13.70
  15  23  21   27.00   15.50
 -15 -21 -23   23.90   14.40
 -23  15 -21   93.19   41.90
  21 -15  23   33.10   11.60
  23 -21  15   72.29   13.10
  15  21  23   82.59   23.70
  15 -23  21   28.20    9.50
 -21  23 -15   92.59   36.00
 -15  21 -23   65.69   40.20
 -21 -15 -23   20.60   16.00
 -23 -15  21   64.09   18.50
 -15 -23 -21   41.20   16.40
  21 -23  17    6.10    6.70
 -23 -17 -21    7.50   15.00
  17 -21  23    3.80    6.00
 -23  21 -17   -7.40   29.10
 -17 -21 -23    3.40   13.10
 -21  23  17   -1.90   13.70
 -21  17 -23   16.10   35.30
 -17  21  23   17.00   13.70
 -17 -23  21    0.40    8.10
 -17  23 -21   19.70   32.60
 -23 -21  17   14.20   11.10
 -23  17 -21  -14.40   34.30
 -17 -23 -21   10.50   14.80
 -23 -17  21    4.30   10.30
  23 -21  17   16.10    8.70
 -21  23 -17   14.80   30.50
  21 -17  23   22.20    9.70
 -17  23  21   21.90   13.20
 -17 -21  23    5.00    8.70
 -17  21 -23   16.10   35.20
  17  21  23   11.00   19.50
 -21 -17 -23   -7.70   13.30
  21 -23  19   64.19   13.30
 -23 -19 -21  107.89   30.20
 -23  21 -19   39.90   36.70
 -19  23 -21   17.10   35.90
 -19 -21 -23   35.60   18.20
 -23 -21  19   57.69   16.70
 -21  19 -23   67.89   41.80
 -21 -23 -19   54.19   21.30
 -23 -21 -19   86.09   24.30
 -19  21 -23  115.29   45.80
 -21 -23  19   53.39   15.20
 -23  19 -21   61.69   39.30
 -19 -23 -21   66.29   20.80
 -21  23 -19   29.00   34.50
  23 -21  19   53.19   13.70
 -23  23   1  216.48   35.70
  -1 -23  23  196.98   23.00
  -1  23 -23   93.29   40.10
  -1  23  23  220.48   29.00
   1 -23  23  174.08   22.50
   1  23 -23  152.08   48.10
   1  23  23  168.78   28.10
  23  -1  23  133.59   31.60
  23   1  23  124.19   31.70
 -23 -23  -3   26.70   16.70
 -23 -23   3   14.10   14.40
 -23  -3 -23   25.20   16.50
 -23  23  -3   16.80   22.10
 -23  23   3   16.70   15.60
  -3 -23 -23   18.80    9.90
  -3  23 -23   25.40   31.80
  -3  23  23   21.00   12.00
   3  23  23   17.60   12.60
  23 -23  -3    5.60    8.10
  23 -23   3    9.40    9.00
  23  -3  23   12.40   15.70
  23   3  23   10.30   16.10
 -23  23   5  111.29   24.60
  -5 -23 -23  107.59   20.40
  -5  23 -23  188.98   54.09
  -5  23  23  105.39   22.50
   5 -23  23  117.59   17.00
   5  23  23  122.39   23.40
  23 -23  -5  123.39   20.30
  23   5  23  116.69   31.00
 -23  -7 -23  -15.20   12.30
 -23  -7  23    9.20   19.00
 -23   7 -23   -6.70   36.70
 -23  23  -7   -2.00   20.40
 -23  23   7    5.30   12.80
  -7 -23 -23    5.30    9.60
  -7 -23  23   -2.90    5.50
  -7  23 -23    3.50   33.00
  -7  23  23    1.30   10.50
   7 -23  23    7.80    6.10
   7  23  23    8.10   10.70
  23 -23  -7    1.40    7.70
  23 -23   7    0.90    8.00
  23   7  23  -13.50   16.20
 -23  -9 -23   36.00   18.40
 -23  -9  23   40.00   18.90
 -23   9 -23   86.09   46.90
 -23  23  -9   26.80   24.40
 -23  23   9   64.89   19.00
  -9 -23 -23   69.99   18.80
  -9  23 -23  131.19   44.00
  -9  23  23   83.79   19.20
   9 -23  23   63.19   11.70
   9  23  23   75.39   20.30
  23 -23  -9   45.20   13.80
 -23 -23  11   -3.60   10.50
 -23 -11 -23    5.10   14.40
 -23 -11  23    2.40   13.50
 -23  11 -23   10.20   38.50
 -23  23 -11    7.30   23.20
 -23  23  11  -13.50   12.00
 -11 -23 -23    0.20    9.90
 -11 -23  23   -0.40    7.10
 -11  23 -23  -21.90   28.40
 -11  23  23   -1.30    9.90
  11 -23  23   -0.50    4.70
  11  23  23   10.40   12.80
  23 -23  11   -1.30    6.80
 -23 -13  23  109.39   21.80
 -23  13 -23   19.90   39.50
 -23  23 -13   31.40   28.50
 -13  23 -23   51.09   37.30
 -13  23  23   69.09   19.00
  13  23  23   38.80   16.20
  23 -23  13   67.49   14.60
  23 -13  23   86.99   17.50
 -23 -15 -23   -0.80   14.70
 -23 -15  23    8.50   11.70
 -23  15 -23   34.20   42.20
 -23  23 -15    2.70   27.50
 -15 -23 -23    6.90   12.80
 -15  23 -23  -14.30   32.30
 -15  23  23   -0.20   10.60
  15 -23  23    2.00    5.70
  15  23  23    3.10   13.90
  23 -23  15    9.50    8.20
  23 -15  23    3.50    8.50
 -23 -17 -23   79.99   23.60
 -23 -17  23  101.09   19.90
 -23  17 -23   56.79   42.30
 -23  23 -17  204.48   54.89
 -17 -23  23   57.49   16.60
 -17  23 -23   78.29   42.10
  17 -23  23   90.39   15.00
  23 -17  23   96.69   17.70
   0 -24   0 1762.82  194.88
   0   0  24 2087.79  198.88
   0  24   0 1926.11  201.48
   0  -2  24  666.03   83.19
   0   2  24  802.82   83.99
  -2   0  24  744.73   83.49
   2   0  24  851.31   84.49
 -24  -2  -2  336.07   69.49
  -2 -24  -2  338.37   40.60
  -2 -24   2  380.46   41.20
  -2  -2  24  354.56   45.30
  -2   2  24  390.86   45.70
  -2  24  -2  417.36   51.79
   2 -24  -2  428.26   42.20
   2  -2  24  361.26   45.50
   2   2  24  339.07   43.90
 -24   0   4   70.29   38.50
  -4 -24   0   65.19   10.80
  -4  24   0  100.99   26.10
   0  -4  24   51.59   15.00
   0   4  24   40.30   13.50
   4  24   0   46.20   16.10
   4   0  24   57.89   17.60
  24  -4   0   48.20   11.20
   0  24   4   53.39   16.00
   0  24  -4  108.49   27.30
   0 -24   4   42.10    9.40
   0 -24  -4   55.49   10.50
  -4   0  24   63.19   16.60
   2  24   4   13.70   10.40
   4  24  -2   11.80   12.70
  -2  -4 -24    1.10    7.50
  24  -4  -2    0.10    4.00
  -2   4  24   11.20   10.30
   2  -4  24    6.10    9.70
  -4 -24  -2    3.80    4.60
  -4  -2  24    2.10    9.50
  -4  24   2    9.40   14.50
  24  -2   4    5.00    5.30
 -24   2   4    7.50   30.40
  -2  24  -4    1.60   15.70
   4   2  24   -0.90    8.50
   2 -24  -4    4.70    5.20
   4 -24  -2    5.80    5.50
   2  24  -4   13.40   16.20
   4  24   2    5.60   11.50
  -2 -24  -4    7.50    5.20
  -2  24   4    4.50   12.00
  -4  -2 -24    5.20    7.90
  -4  24  -2   -5.60   14.10
  -4   2  24    4.60   10.30
   2 -24   4    6.70    5.40
  -2  -4  24    6.10    9.80
   2   4  24    3.90    9.70
   4  -2  24    7.40   10.20
  -2 -24  -4   11.40   10.60
 -24  -2   4    2.90   27.40
   4 -24  -4  560.54   56.39
  -4  24   4  580.64   61.79
   4   4  24  502.95   59.89
   4  24  -4  530.35   64.99
   4  24   4  429.56   58.19
  -4  -4  24  446.46   59.49
  -4  -4 -24  598.44   57.89
  -4   4  24  474.65   58.99
   4  -4  24  561.44   60.19
   0  24   6  505.75   58.99
  -6 -24   0  569.64   57.09
   0 -24  -6  556.64   56.29
   0  -6  24  488.75   59.99
   0   6  24  463.75   58.89
 -24  -6   0  496.75   80.09
   0  24  -6  523.25   66.09
  -2  24  -6  123.09   31.50
   6   2  24  126.09   23.40
  -6  -2  24  170.28   26.50
  -6  24   2   85.59   25.30
  -2 -24   6  130.09   17.40
   6  24  -2  182.08   26.50
   2  -6  24  115.39   23.40
   2  24   6  138.89   23.30
  -2   6  24  126.69   22.10
 -24  -6   2   78.09   39.20
  -2  -6 -24  135.19   20.70
 -24   2   6   87.69   42.40
 -24  -2   6  212.18   53.19
  -2 -24  -6  161.78   26.10
  -6   2  24  158.38   24.20
   2   6  24   90.89   21.60
   6  -2  24  136.59   24.10
   2  24  -6  153.18   31.50
   6 -24  -2  158.78   18.70
  -2  -6  24  108.39   23.20
 -24  -6   4  133.59   44.00
  -6  -4  24  120.89   25.10
   6  24  -4  127.49   29.00
  -4   6  24  119.59   22.90
   4  -6  24  165.58   24.90
   4  24   6  161.28   24.30
  -6 -24  -4  156.88   19.20
   6 -24   4  125.39   19.30
   6   4  24  145.89   24.60
   6  -4  24  157.38   24.90
  -4  -6  24  118.19   24.30
  -4 -24  -6  147.09   21.10
   6  24   4  160.38   23.60
   4   6  24  153.58   24.40
  -6  -6 -24   21.20   10.30
  -6   6  24   23.60   11.40
  -6  -6  24   20.50   12.60
  -6  -6  24   34.90    9.70
  -6  24   6   17.00   13.30
   6 -24  -6   23.50    7.50
  -6  24  -6   31.00   19.60
  24  -6   6   41.40   10.40
   6  -6  24   21.10   12.30
   6   6  24   26.80   11.80
 -24  -6  -6   55.59   34.80
   6  24   6   18.40   11.30
  -6 -24  -6   12.80    7.10
   6  24  -6    8.10   15.80
 -24   0   8 1616.54  201.88
  -8   0  24 2025.20  183.68
   0  24   8 1774.12  181.98
   8   0  24 1547.45  181.48
   8  24   0 1694.43  180.88
   0   8  24 1974.00  182.48
   0  -8  24 1632.54  182.98
  -8  -2  24  889.91  102.09
   8   2  24 1010.70  102.29
   2  -8  24  865.61  102.19
  -2 -24   8  938.41   97.59
   8 -24   2 1007.40   98.69
   8  24  -2  879.61  101.09
  -8 -24  -2  998.60   99.29
  24  -8   2  794.42   98.49
   8  24   2  943.31  100.49
   8 -24  -2 1038.20   98.69
   2   8  24 1054.09  102.09
   8  -2  24  984.20  101.99
  -2  -8  24  914.21  102.69
  -2  -8  24  868.01   99.29
 -24  -8  -2  963.30  121.39
  -4  -8 -24   56.19   14.30
   8  24  -4   67.59   18.10
  -4   8  24   31.70   12.60
  -4  24  -8   27.90   19.80
   8   4  24   46.10   13.40
  24  -8  -4   35.70   10.40
   4  -8  24   61.39   16.60
  -8  -4  24   55.29   16.50
 -24  -4  -8   52.59   36.20
  -4 -24   8   32.00    9.20
  -8 -24  -4   36.90   10.10
  -8  24   4   79.29   19.30
 -24   4   8   47.40   35.80
  -8  24  -4   20.90   19.30
 -24  -4   8   58.19   34.90
  -4  24   8   42.60   13.90
  -4  -8  24   58.39   16.60
  -4  -8  24   39.50    9.30
  -8   4  24   26.10   12.80
   4   8  24   39.00   13.30
  -8  -4 -24   22.20   10.90
 -24  -8  -4   41.20   33.40
   4  24  -8   89.99   24.00
   8  -4  24   51.69   15.30
  -4 -24  -8   13.90   13.70
   6 -24  -8  407.36   40.90
   8   6  24  305.27   44.00
   6  -8  24  381.96   46.40
 -24  -8   6  460.75   66.99
  -8  24   6  322.47   45.90
  -6   8  24  284.87   42.90
   6  24   8  327.57   43.00
   8  24  -6  264.67   47.10
  -8  -6  24  381.36   47.20
   6  -8  24  415.76   42.40
   6   8  24  430.66   45.70
  -8  -6 -24  393.56   43.40
   6  24  -8  431.66   52.29
  -8   6  24  277.17   43.00
 -24  -6   8  483.35   67.99
   8 -24  -6  378.36   40.60
  -6  -8  24  312.07   46.50
  -6  -8  24  346.47   41.50
   8  -6  24  431.56   46.90
  24  -8   6  339.77   42.00
  24  -8   8 1106.39  119.59
 -24  -8  -8 1075.79  140.39
   8  -8  24 1078.99  122.49
   8   8  24 1229.48  122.19
  -8  -8  24 1213.78  119.99
  -8   8  24 1207.18  121.69
 -24  -8   8  946.31  134.39
  -8 -24   8 1198.18  119.19
  10   0  24 1492.55  133.69
   0  10  24 1060.69  130.79
  10  24   0 1244.08  131.29
 -10   0 -24 1312.97  130.89
   0  24 -10 1108.19  137.99
   0 -24 -10 1176.68  130.79
 -24 -10   0 1221.98  148.39
   0 -10  24 1309.17  128.69
   0 -10  24 1156.28  132.89
   0 -10 -24 1383.86  130.49
   2  24  10  448.36   54.69
   2 -10  24  610.24   59.09
  10   2  24  447.16   55.89
  -2  24 -10  447.66   63.79
  -2  10  24  498.55   55.29
  10  24   2  404.26   53.79
 -10   2  24  577.14   58.59
  -2 -10  24  441.76   57.39
   2 -24  10  460.35   51.09
  10  -2  24  496.85   55.89
  24 -10   2  424.56   52.99
   4  24  10   33.90   12.20
  -4  24 -10   25.80   21.40
 -24 -10   4   38.80   29.70
  24  -4  10   19.50    7.60
 -10 -24  -4   34.80   10.30
   4 -10  24   15.20    7.00
  10   4  24   25.00   12.60
  -4  10  24   19.10   10.90
  10 -24   4   14.50    7.20
   4 -10  24   27.30   13.80
   4 -24 -10   22.50   11.10
  -4 -10 -24    8.80    8.80
  -4 -24  10   29.70    8.30
 -24  -4 -10   12.10   31.00
  -4  24  10   32.10   13.20
 -10  -4 -24   40.20   12.10
   4  24 -10   16.30   19.50
 -10   4  24   36.50   13.30
 -24  -4  10   28.40   30.50
 -10  24  -4   11.50   18.70
  10  24   4   25.00   11.70
  10 -24  -4   13.60    6.40
  -4 -24 -10   18.00   12.50
 -10 -24   4   22.80    8.80
  10  -4  24   32.00   13.30
  -4 -10  24    6.10    5.50
 -24 -10  -4   24.10   30.10
  -4 -10  24   14.70   12.90
   4  10  24   18.90   11.40
  10   6  24  213.28   31.10
  -6  10  24  204.88   30.00
  10 -24   6  171.88   26.10
   6  24  10  159.98   29.10
 -10 -24  -6  258.07   29.40
  -6  24 -10  247.78   44.10
   6 -10  24  227.98   26.70
   6 -10  24  259.77   33.80
 -10  -6  24  227.68   30.30
  24 -10  -6  255.97   28.00
  10  -6  24  223.28   33.30
  -6 -10  24  176.78   26.90
 -24 -10  -6  307.67   56.79
   6  10  24  222.28   31.90
  10 -24  -6  197.98   26.20
  -6 -10  24  261.77   36.40
 -10   6  24  246.48   32.00
  -6 -24 -10  200.88   33.10
 -10  24  -6  194.78   40.70
  -6  24  10  239.88   30.30
  10   8  24 1012.40  113.99
   8 -10  24  900.81  114.39
 -24  10  -8 1139.79  129.89
  -8  10  24 1113.89  113.49
  10 -24  -8 1178.18  111.69
 -10 -24   8 1060.19  111.49
  10  -8  24 1007.80  115.09
 -24 -10  -8 1227.88  135.89
 -10  -8 -24 1028.20  112.79
  10 -10  24  721.63   80.89
 -10  10  24  671.63   77.89
  10  24  10  696.03   78.19
  10  10  24  753.02   79.79
   0  24 -12   37.60   23.60
   0  24  12   44.30   14.90
  12   0  24   70.99   19.30
   0  12  24   65.99   17.00
 -12   0 -24   72.39   17.40
   0 -24 -12   77.69   17.10
   0 -12  24   62.79   11.30
 -24   0  12   69.29   35.90
 -12  24   0   98.29   26.10
   0 -24  12   69.39   11.20
   0 -12  24   58.29   18.40
   2  24  12    2.30    9.70
 -12   2 -24   17.50   10.30
  12   2  24    9.10   11.20
   2 -12  24   -0.10   11.50
  -2 -12 -24   15.10    9.00
   2 -24 -12   -1.10    8.30
  -2  24 -12   -1.20   19.60
  -2 -24  12   24.70    7.40
   2 -12  24   11.90    6.30
 -24   2  12   38.30   33.80
  24  -2  12   13.80    6.00
 -12  24   2   18.90   15.90
 -24 -12   2   -7.50   24.40
  -2  12  24   14.40   10.00
  12 -24   2    7.80    6.50
 -24 -12  -2   -4.50   24.20
 -24  -2  12   18.70   28.20
   2  12  24   15.10   10.80
  12  -2  24   17.10   12.00
  24 -12   2   27.00   10.30
 -12  -2 -24   21.50   11.00
  12 -24  -2    6.20    6.40
  -2 -12  24    9.90    5.70
   2  24 -12   36.00   22.20
  -2 -24 -12   17.00   11.40
  -2  24  12   23.30   11.90
 -12 -24   2   13.70    8.60
 -12  24  -2   11.20   19.30
  -2 -12  24    8.10   12.40
 -24  -4 -12  314.17   72.49
  -4  12  24  465.65   52.69
   4  24  12  400.76   52.69
 -24  12  -4  480.55   65.69
 -12 -24  -4  508.85   51.99
   4 -12  24  434.96   55.59
 -12   4  24  502.95   55.79
  -4 -12  24  466.95   57.19
   4  12  24  463.15   53.79
 -12  -4 -24  429.36   52.59
   4 -24  12  461.65   49.60
  -4  24  12  432.36   53.19
 -12 -24   4  493.45   51.79
  12  -4  24  420.06   54.29
  12   6  24   79.19   19.20
  -6  24 -12    9.00   23.00
 -24  12  -6  115.09   32.70
 -12  24   6   59.39   18.30
   6 -12  24   69.09   11.80
   6 -12  24   68.99   18.30
 -24  -6 -12   48.50   36.10
  -6  12  24   75.69   17.00
 -12 -24  -6   84.69   14.40
  12 -24   6   55.59   12.20
 -12  -6  24   41.20   14.40
  -6  24  12   63.59   16.80
  12 -24  -6   45.40   11.40
 -24   6 -12   79.69   38.30
   6  12  24   71.69   17.60
  -6 -12  24   48.90   18.20
 -12 -24   6   41.80   12.60
 -12  -6 -24   49.90   15.20
  12  -6  24   90.39   21.20
  -6 -24 -12   37.10   15.90
 -12  24  -6  124.49   33.00
  12  24   6   86.69   18.50
  -8  24 -12   64.59   28.30
 -24   8  12   62.49   41.30
 -24  12  -8   94.99   32.80
   8 -12  24   87.89   21.70
 -12  24   8   91.99   19.20
  -8 -12 -24   70.79   16.40
   8  24  12   74.59   17.70
 -24  -8 -12   84.79   40.00
 -12  -8  24   92.09   17.30
  24  -8  12   89.09   15.20
  -8  12  24   39.70   14.00
  12   8  24   73.59   18.00
  -8 -12  24   67.49   14.00
  -8 -24 -12   34.60   16.20
 -12  24  -8   73.69   25.50
 -12 -24   8   49.40   13.40
  12  -8  24   64.99   18.50
 -24 -12  -8   80.29   35.60
 -24   8 -12   58.89   38.10
 -12  -8 -24   50.39   15.00
  12  24   8   69.49   18.40
 -12   8  24   85.49   20.60
   8  12  24   63.09   17.20
  24 -12   8   44.70   14.00
 -24  12 -10   15.80   27.70
 -24 -10 -12   31.70   33.40
  10 -12  24   10.60    6.70
 -24  10  12    1.90   31.30
 -12 -10  24   22.30   10.70
  24 -12 -10   15.30    6.30
 -12  24  10   16.30   11.60
 -10 -12 -24   13.10   10.40
 -10 -24  12   30.40    9.70
 -10  24 -12    3.00   21.30
  12  10  24   29.70   13.40
  10 -12  24   17.80   14.20
  10  24  12   37.60   12.70
  24 -10  12    9.60    8.00
 -10  12  24   15.00   10.90
  10 -24  12   15.70    7.10
 -10  24  12   36.10   13.80
  10  12  24   27.70   12.90
  12  24  10   10.00   11.40
 -10 -12  24   12.70    8.70
 -24 -12 -10   -2.90   27.50
 -12 -10 -24   13.30   11.10
 -12 -24  10   27.80   10.30
 -12  10  24   21.60   11.60
 -10 -24 -12    4.00   12.20
  12 -10  24   22.10   14.30
  12 -10  24   12.30    7.10
 -24  10 -12   -4.90   29.70
  24 -12  10   23.20   10.30
 -12  24 -10    6.20   21.50
 -24 -12  12  188.88   39.30
 -24 -12 -12   90.49   47.10
  12  24  12  177.98   25.70
  12 -12  24  135.89   20.90
  12  12  24  161.18   27.20
 -24  12 -12  270.37   55.49
 -24  12  12   81.09   46.40
 -12 -12 -24  141.79   25.70
 -12 -12  24  168.98   24.20
 -12  12  24  174.78   26.20
  12 -12  24  180.48   30.60
 -24   0  14  121.29   42.80
  14   0  24  105.29   23.30
 -14   0 -24  131.59   22.90
   0  14  24  113.79   22.20
  24 -14   0  148.09   21.20
 -14  24   0  175.88   34.20
   0 -24  14  144.39   18.00
 -24  14  -2    0.50   17.70
   2 -24 -14   -0.10    8.70
  -2  24 -14   -5.60   21.40
 -24  -2 -14   -3.50   29.40
 -24   2  14   15.00   30.40
 -14  24   2    0.80   15.80
  14   2  24    2.00   10.90
 -24 -14   2  -12.50   21.00
  -2 -14 -24   11.20    8.80
  24  -2  14    8.10    6.40
   2  24  14   -0.70    9.60
  -2 -24  14    1.30    4.80
 -14 -24  -2   10.00    8.20
  -2  14  24    7.40    9.60
  24 -14   2   14.10    9.00
 -14  24  -2   14.20   17.90
 -14  -2 -24   11.30   10.20
 -14 -24   2    9.10    8.60
  -2  24  14    2.80    9.80
   2  24 -14    7.20   20.90
  -2 -24 -14    3.50    9.70
  -2 -14  24    3.30    4.80
   2  14  24   13.50   10.50
  14  -2  24    8.00   10.30
 -24 -14  -2    7.10   23.70
  24  -4  14   80.39   16.00
  -4  14  24  120.49   20.40
  24 -14  -4  100.29   17.40
  -4  24 -14  154.08   39.00
  -4 -14 -24  123.99   19.30
 -24 -14   4  155.38   37.50
  14   4  24   96.99   22.60
 -24  14  -4  138.59   38.20
   4  24  14  113.59   20.60
 -14  -4  24  144.09   25.60
   4 -14  24  132.39   17.00
  -4 -14  24  127.99   16.50
   4  14  24  145.49   23.00
  24 -14   4   83.19   17.80
 -14  -4 -24   87.39   21.10
   4  24 -14   92.69   32.30
 -24   4 -14   94.79   43.30
 -24 -14   6   -3.00   20.80
  -6  24 -14    6.20   21.70
  -6 -14 -24    0.70    7.70
   6 -14  24    3.80    5.30
  14   6  24   -4.50   10.40
  -6  14  24    4.60    8.90
 -14 -24  -6   -1.50    7.40
 -24  14  -6    7.00   20.70
 -24  -6 -14  -12.00   29.90
 -14  24   6  -11.50   11.10
 -14  -6  24    4.00   11.10
   6  24  14   -1.90    8.50
 -24   6  14    5.10   32.00
  24 -14   6    1.50    7.40
 -24   6 -14   12.70   33.90
   6 -24  14    3.40    5.60
  14 -24  -6    6.30    6.90
  -6  24  14   -2.10    9.70
  -6 -14  24   -0.60    5.50
  14  -6  24    3.60   11.20
 -14  -6 -24    2.80    9.30
 -14  24  -6   -4.50   17.30
 -24 -14  -6    7.20   25.90
 -14 -24   6    3.90    8.00
  -6 -24 -14    2.60   11.00
   6  14  24   -0.90    9.50
   6  24 -14    3.80   21.30
 -24  -6  14   -2.80   24.40
  -8 -14 -24  190.08   29.10
  24  -8  14  253.77   29.60
  24 -14  -8  184.58   26.90
  14   8  24  172.98   31.40
  -8  24 -14  265.27   50.39
 -14  24   8  172.38   30.20
   8  24  14  248.58   31.40
 -14  -8  24  217.08   31.60
   8  14  24  241.18   32.40
 -14  -8 -24  244.78   32.10
 -24   8 -14  213.98   65.39
 -14  24  -8  252.57   46.10
  14  -8  24  287.97   35.50
  14  10  24   86.89   20.70
 -24  10  14  131.19   47.80
 -14  24  10   81.49   20.10
 -10 -14 -24  120.59   20.60
 -10  24 -14   38.10   30.60
 -24  14 -10   77.89   33.70
  24 -14 -10   72.39   14.10
 -14  24 -10   62.99   29.90
 -14 -10 -24   94.99   21.10
 -24  10 -14   89.09   40.30
 -24 -10  14  110.39   33.40
 -10  24  14   51.09   16.60
 -14  10  24  135.59   24.90
 -10 -24 -14  100.19   24.30
  14 -10  24   81.69   23.80
 -24 -14 -10   60.99   32.80
  24 -14  10  107.49   17.40
  10  14  24   64.19   19.90
  10 -24  14   83.39   13.70
 -10 -14  24  102.99   16.80
 -14  24  12  100.29   21.30
  12  24  14   89.59   20.60
 -24  12  14   54.69   44.20
  12 -14  24   53.69   12.70
  14  12  24  110.29   22.00
 -24  14 -12   69.69   35.10
  12  14  24  123.39   22.00
 -14  24 -12   83.19   32.50
 -24 -12  14   28.70   23.90
 -24  12 -14  150.68   43.40
 -14 -24  12   86.19   16.10
 -12 -24 -14   69.49   20.90
  14 -12  24   74.89   15.80
  14  24  12   81.59   21.10
  14  14  24   41.40   15.80
  14  24  14   39.30   14.10
 -24  14  14   -1.70   37.10
 -14  24 -14   37.80   30.20
  14 -24  14   25.10    9.70
 -14  14  24   31.40   14.20
 -24  14 -14   43.00   35.60
 -14  24  14   58.09   17.00
 -14 -14 -24   23.70   15.40
 -14 -14  24   19.50   10.40
 -14  14 -24   67.89   41.70
   0  24  16  979.10  105.79
  24   0  16 1138.19  112.39
 -16 -24   0  877.81  105.49
  -2  16  24  400.26   50.49
 -24  16  -2  378.26   60.49
  16   2  24  396.56   51.99
  16 -24   2  404.26   48.60
 -24  16   2  439.66   56.09
  24   2  16  389.36   56.89
   2  16  24  522.15   52.39
  -2  24  16  505.55   52.59
  16  -2  24  416.66   53.29
   2  24 -16  564.94   70.09
  16 -24  -2  461.55   49.60
 -24  -2  16  327.37   64.49
  -4  24 -16   42.20   26.30
 -24   4  16   70.99   35.70
 -24  16  -4   76.69   27.30
  -4  16  24   67.19   17.30
  16   4  24   79.99   20.40
 -24  -4 -16   39.40   38.30
   4  16 -24   58.99   39.30
  24  -4  16   64.19   12.90
 -16  24   4   53.39   19.50
 -24   4 -16   59.49   44.70
   4  16  24   69.59   18.70
  -4 -16  24   73.69   12.10
 -16 -24   4   39.30   14.50
 -24 -16  -4   59.29   26.50
  -4  24  16   83.29   19.90
   4  24 -16   77.29   30.50
  -4  16 -24   18.80   34.00
  16  -4  24   93.39   22.10
  16 -24   6  171.88   25.10
 -24  16  -6  237.58   46.90
  -6  24 -16  216.78   49.00
 -16  -6  24  148.49   31.70
 -16 -24  -6  236.68   29.90
  -6 -24  16  246.28   26.10
  -6  16  24  174.58   28.20
  -6 -16 -24  200.08   28.00
 -24   6  16  302.57   60.19
  16   6  24  189.98   30.80
   6  16 -24  201.28   58.99
  24  -6  16  225.48   26.90
  16 -24  -6  182.38   26.60
 -16  -6 -24  179.68   30.20
  16  -6  24  167.28   31.60
   6  16  24  189.28   29.60
   6 -24  16  224.68   25.30
   6  24 -16  164.58   49.00
 -16  24  -6  182.68   40.60
 -24   6 -16  144.49   49.10
  -6  24  16  241.38   31.00
  16 -24   8 1087.59  106.29
  16   8  24  852.01  108.99
  24  -8  16 1100.59  107.79
  -8  16  24  850.51  107.09
 -16  -8  24 1023.80  111.09
 -24   8 -16 1039.70  133.99
 -16  24  -8  984.90  118.79
  -8 -24 -16 1006.50  109.69
  24 -16   8 1162.08  108.89
  16  10  24  783.72   77.79
 -24  16 -10  705.33   91.29
  10 -16  24  636.44   71.79
  24 -10  16  588.84   73.29
 -10  16  24  624.54   74.79
  10  24  16  793.32   76.49
 -10  16 -24  551.84   98.29
 -24  10 -16  574.24   99.49
  16 -10  24  667.13   78.69
 -16 -10 -24  751.32   76.99
 -10 -24 -16  722.03   78.09
  10  16  24  643.84   75.99
  12  24  16   30.20   13.50
  16  12  24    1.40   11.90
 -16 -12  24    0.70    8.40
 -24  12  16   35.40   42.20
  12 -16  24   11.90    6.50
  24 -12  16    7.10    7.70
 -24  16 -12    5.30   27.70
 -12  24 -16   24.30   30.60
 -24 -16  12    4.30   18.10
 -16  24  12    4.90   11.30
 -16  12 -24    2.20   34.20
 -12 -16 -24   18.20   11.90
 -12  16  24   12.40   11.00
 -12  16 -24  -15.50   34.00
  16 -12  24    3.60    7.00
 -12 -16  24   17.10    9.10
 -24  12 -16   26.90   34.10
 -12 -24 -16    0.30   24.10
  12 -24  16    3.00    5.90
 -16 -24  12    8.30    9.20
 -16  24 -12   21.20   27.40
  12  16  24   11.00   11.80
 -16 -12 -24    7.10   13.50
 -16  12  24   21.40   20.90
  14  24  16  104.99   22.70
 -16  14 -24  109.39   45.50
 -14  24 -16   90.79   37.20
  14 -16  24  106.49   16.30
 -16  24  14  126.59   23.10
 -24  16 -14  155.08   42.90
  16  14  24   78.49   21.80
 -16 -14  24  120.29   24.10
 -24  16  14   31.60   55.69
 -14  24  16  150.48   23.30
 -24  14 -16  114.69   43.10
 -14 -24 -16   82.19   25.90
 -16 -14 -24  118.99   23.70
  16 -14  24   93.59   17.10
 -14  16 -24   67.19   42.20
  16  16  24  609.54   69.49
 -24 -16  16  661.33   73.89
 -24  16 -16  491.35   85.89
 -16 -16 -24  572.34   68.39
  24   0  18  709.33   74.39
   0 -24 -18  695.93   66.49
   0  24 -18  496.65   80.49
   0  24  18  539.05   67.39
   0 -18  24  529.85   63.29
  -2 -24  18  328.47   35.80
   2 -18  24  276.67   35.70
 -18  24   2  348.67   46.20
  24  -2  18  354.46   37.70
  -2  18  24  339.27   40.20
  -2 -18  24  305.07   35.80
  -2 -24 -18  293.57   38.60
   2  18  24  309.57   40.20
   2  24 -18  351.76   60.79
  18  -2  24  321.97   43.80
  -2  18 -24  327.07   66.79
 -18  -2 -24  328.67   42.40
  24 -18   2  257.47   37.90
  24   2  18  344.57   48.50
 -18  24   4    8.70   14.00
 -18  -4  24   -4.60   15.50
 -24   4  18  -14.40   27.20
   4  18 -24    5.40   36.30
   4 -18  24    4.40    5.70
   4  24  18   -3.70    9.90
  18   4  24    3.30   11.40
  -4 -18 -24   -1.70    8.00
  -4  18  24   -4.70    8.90
  18 -24   4    1.20    7.10
  24 -18  -4    6.70    7.50
 -24  18  -4  -10.80   17.90
  24  -4  18   -3.30    5.60
 -18 -24  -4    5.70   10.70
  -4  24 -18  -32.20   21.80
  -4 -24 -18   -0.70    8.60
   4  24 -18    2.50   25.70
  -4  24  18    0.70   10.20
   4 -24  18    4.90    6.00
  -4 -18  24    4.10    5.70
  -4  18 -24  -24.80   29.50
 -18  -4 -24   -3.20   11.10
   4  18  24    5.00   10.30
 -24  18   4   -0.30   14.20
  18  -4  24   -9.20   11.70
 -18 -24   4   -4.70    8.70
  18 -24  -4    1.50    7.40
 -18  24  -4   -3.60   19.40
 -24 -18  -4    4.60   21.70
 -24   4 -18  -31.00   34.00
 -24   6  18   66.49   39.50
 -24  18  -6   37.40   24.30
  18   6  24  111.89   23.80
 -18 -24  -6   59.79   17.80
  -6  24 -18  110.89   36.90
  18 -24  -6   90.19   16.20
 -24   6 -18   63.99   43.70
 -24 -18  -6  119.99   35.20
  18  -6  24   97.79   23.70
  -6 -24 -18   87.79   21.00
   6 -24  18   68.39   12.80
 -18 -24   6   90.79   19.10
  -6  18 -24   53.39   38.10
   6  18  24   80.79   20.20
  24 -18   6   70.99   16.00
 -18  -6 -24   85.69   23.10
 -18  24  -6   22.70   23.10
  -8  18  24  812.42   85.59
   8  24  18  726.33   85.49
  18   8  24  735.13   87.39
  24 -18  -8  884.11   84.29
 -18  -8 -24  861.31   88.29
  18  -8  24  637.94   87.39
  -8 -24 -18  831.92   86.69
   8  18  24  736.43   88.59
  10  24  18  478.95   52.09
  18  10  24  364.56   52.59
  24 -10  18  438.96   50.19
 -10 -24  18  484.25   49.70
 -10 -24 -18  404.76   52.79
 -24  10 -18  464.35   81.69
  10  18  24  385.06   52.49
 -18  24 -10  310.57   62.89
 -10  24  18  391.06   50.69
 -18 -10 -24  521.15   54.69
 -10  18 -24  442.16   80.29
 -18 -24  10  462.55   51.19
 -24  18 -12  -11.20   25.80
 -24 -18  12   -9.80   14.00
  18  12  24    2.50   14.20
 -18  12 -24    3.80   35.60
  12  24  18   -4.10   10.50
 -12  24 -18   14.90   28.40
  24 -18 -12    4.10    6.20
 -18  24  12   -1.00   10.80
 -12 -18 -24   -1.80   10.10
  18 -24  12   14.80    8.00
 -18 -12  24    4.70    9.80
 -12  18  24    9.60   10.70
  24 -12  18    4.30    7.90
 -24  12 -18  -23.00   33.00
  18 -12  24   -1.60    7.00
 -18 -12 -24    3.40   12.00
 -18  24 -12   15.50   26.00
 -24 -12  18   12.10   18.10
 -18 -24  12    9.60    9.00
 -12  24  18    1.90   10.30
  12 -24  18    3.60    5.70
  24 -18  12   -2.40    6.70
 -12 -18  24    4.00    7.80
 -12 -24 -18   14.90   13.90
 -12  18 -24   17.10   35.80
  12  18  24   -2.50   10.90
 -18  14 -24   54.49   40.80
  18  14  24   34.20   16.40
 -18  24  14   35.90   14.80
  14 -18  24   30.30    9.60
  18 -24  14   36.20   10.50
  14  24  18   70.49   20.60
 -14  18  24   43.40   14.30
 -24  18 -14   49.99   33.90
 -14  24 -18  113.89   40.70
 -14 -18 -24   45.30   15.30
 -14 -18  24   64.89   14.20
  24 -18  14   39.20   11.70
 -18 -14 -24   31.30   15.80
  18 -14  24   42.90   13.20
  14  18  24   30.80   15.80
 -24  14 -18   40.60   36.90
 -14  24  18   77.09   19.50
 -18  24 -14   45.70   31.70
 -14 -24 -18   60.29   18.60
 -14  18 -24   69.99   44.30
 -18 -24 -16  291.47   47.50
 -18  16 -24  356.36   73.79
  16 -18  24  315.77   39.60
  16  18  24  337.07   46.60
 -18  24 -16  461.85   67.29
 -16  24  18  366.76   43.80
 -24  16 -18  336.17   69.79
  24 -18  16  353.96   41.40
 -24 -16  18  377.56   48.00
 -18  18 -24  226.08   64.89
 -24  18 -18  300.87   70.39
  18 -18  24  335.17   39.90
 -18 -18 -24  253.37   43.10
 -18  24  18  399.16   43.90
  18 -24  18  382.76   38.80
   0 -24 -20  121.39   23.90
   0 -20  24  182.48   21.40
   0  24 -20  275.07   56.59
  20   0  24  179.18   31.20
   0  24  20  209.88   30.00
   0  20  24  169.28   26.30
 -24 -20   0  109.59   33.70
 -24  20   0  157.78   36.00
  20 -24   0  127.19   22.30
   0  20 -24   98.89   42.60
  24   0  20  175.38   33.20
  20   2  24    9.50   14.40
 -24 -20   2  -10.40   14.90
 -24  20  -2   25.70   20.70
 -20 -24  -2   16.60   13.50
  -2 -24  20    7.70    6.30
   2  20 -24   23.10   34.40
 -24  -2 -20    3.30   14.60
   2  24  20    7.10   10.20
  -2  20  24   -3.00    9.70
 -20  24   2    4.10   17.10
 -24   2  20    0.70   28.50
  24  -2  20  -11.50   15.00
  -2 -20 -24    6.00   13.80
  -2  24 -20   12.90   28.80
   2 -20  24    1.60    5.60
   2  20  24   14.40   11.40
 -20  -2 -24    4.00   12.50
  -2 -24 -20   15.10   10.20
 -24 -20  -2   -1.60   18.00
  -2  24  20    3.40   10.90
  20  -2  24   10.40   13.70
  -2  20 -24   19.00   32.20
  -2 -20  24    9.40    6.30
  24 -20   2    5.50    8.40
 -24  -2  20    1.00   24.30
   2  24 -20  -22.00   27.80
 -24  20   2   -5.90   16.90
  24   2  20   10.50   16.80
  20 -24  -2   13.90    9.40
  -4 -20 -24   69.39   16.70
 -20 -24  -4   42.20   17.00
   4  20 -24   39.80   39.40
 -24 -20   4  109.09   28.10
   4 -20  24   58.69   12.50
  20   4  24  110.29   24.80
 -24   4  20   28.20   36.30
 -24  20   4  118.69   24.80
 -24 -20  -4   58.69   23.80
  -4 -20  24   79.09   12.80
 -20  -4 -24   82.69   22.40
 -24  -4  20   89.29   32.30
  24   4  20  120.69   31.60
  -4  24  20   87.29   21.60
  20 -24  -4   67.69   15.60
 -20  -6  24    5.00   17.40
  -6  20  24   -0.10    9.40
 -20  24   6    2.10   12.10
  20   6  24    1.40   13.30
 -24 -20   6    6.70   16.30
  -6  24 -20   -2.50   28.10
  20 -24   6    0.50    7.10
  24  -6  20    4.50    7.70
  -6 -24  20   -0.30    5.30
  -6 -20 -24   -3.10    8.40
   6  24  20   -5.20   10.00
 -20  24  -6   13.00   21.80
 -24   6 -20   19.10   39.20
  20 -24  -6    0.90    7.10
   6  20  24   -2.50    9.70
  20  -6  24    3.60   14.40
 -24 -20  -6   17.90   21.30
 -24  -6  20   -9.00   21.00
 -24  20   6   -5.60   11.60
  -6  20 -24   16.50   32.80
  -6  24  20   -1.60   10.90
  -6 -20  24   -0.40    5.70
  -6 -24 -20    3.00    9.60
  20   8  24   77.49   24.40
 -20  -8  24  141.49   26.80
  -8 -20 -24   85.39   18.40
  24  -8  20  112.99   18.30
 -24  20  -8   63.89   27.30
   8 -20  24  100.09   14.80
  -8  20  24   65.79   19.00
  24 -20  -8  103.59   17.10
  -8  24 -20  116.89   40.00
 -20  24   8   69.59   20.70
 -24   8 -20   30.80   43.50
  -8 -20  24  107.19   16.10
  -8  24  20   92.29   21.50
   8  20  24   65.99   19.10
  -8  20 -24   55.59   38.80
  -8 -24 -20   58.79   19.40
  20 -24  -8  104.99   18.20
 -20  24  10   17.00   13.40
 -10 -20 -24   -6.10    9.20
  10  24  20   14.40   12.60
 -24 -20  10   36.80   18.20
  10 -20  24   10.50    6.00
  20  10  24   22.70   15.70
  24 -10  20   12.80    9.50
 -10  24 -20   29.30   31.60
  24 -20 -10   14.20    7.30
 -10  20  24   13.90   11.00
 -24  20 -10    6.70   23.80
 -20  10 -24   31.40   39.00
 -20 -10  24   -2.20   11.70
 -20  24 -10   12.50   23.80
 -24  10 -20   -4.90   36.00
  10  20  24    4.70   11.90
 -10  24  20   29.30   13.40
 -10 -24 -20   24.00   13.40
  10 -24  20   25.70    7.80
  24 -20  10   25.80   10.60
 -10  20 -24   21.70   35.50
 -20 -10 -24    4.80   12.70
  24 -12  20  117.29   19.50
 -12 -20 -24  111.59   22.30
 -20  12 -24  245.18   62.29
  12 -20  24  106.09   15.80
 -12  20  24   65.99   20.00
 -12  24 -20  170.88   49.50
  12  24  20  104.59   23.20
 -24  20 -12   70.39   35.40
 -20  24  12   88.59   21.80
 -12 -24  20   99.99   17.80
  20  12  24  117.19   26.40
 -12  24  20   94.39   22.00
  12 -24  20  133.69   16.30
 -12  20 -24   96.99   43.60
  12  20  24   85.49   22.90
 -20 -12 -24  108.99   25.70
 -12 -24 -20  101.29   24.20
 -24  12 -20   78.19   42.70
 -24 -20  14    1.90   11.60
 -14  24 -20   45.40   33.90
  14  24  20    9.50   13.20
  20  14  24   13.00   16.40
 -20  14 -24   -8.20   36.90
 -14 -24  20    3.20    8.00
 -14  20  24   15.80   11.90
  14 -20  24   22.40    7.70
 -20  24  14   10.90   11.80
 -20 -14  24   10.50   11.40
  24 -14  20    5.70    7.80
 -24  20 -14   19.30   29.90
 -14 -20 -24   10.80   12.00
 -14  24  20   21.80   12.70
  20 -14  24   20.90   11.00
 -14 -20  24   -1.60    8.00
 -20 -24  14   20.50   10.40
 -24  14 -20   -0.50   37.20
 -20  24 -14   17.10   27.70
  14  20  24    7.60   12.80
 -20 -14 -24   11.20   13.80
 -14  20 -24   -2.50   33.70
 -24 -14  20    0.90   13.60
 -14 -24 -20    8.90   13.70
  16 -20  24   81.69   12.90
 -24 -20  16   64.89   18.70
 -16 -24  20   67.49   14.30
 -24 -16 -20   49.80   20.20
 -20  16 -24   67.79   41.90
 -16  20  24   49.80   16.20
  24 -16  20   78.69   15.50
 -24  20 -16   40.30   34.90
 -16  24 -20   55.79   35.70
 -16  24  20   36.10   14.90
 -16 -24 -20   84.69   24.90
 -16  20 -24   76.39   43.60
  16  20  24   91.39   26.10
  16 -24  20   56.79   11.50
 -24 -16  20   32.30   17.00
 -24  16 -20   83.19   40.00
 -16 -20  24   54.89   14.70
  24 -20  16   40.40   13.40
 -20  18 -24   71.59   43.60
 -18 -20 -24   17.60   15.00
 -18  24 -20   95.79   39.20
 -20  24  18   18.20   14.50
 -24  20 -18   61.89   35.30
 -20 -24 -18   32.50   18.70
  18 -20  24   47.10   12.30
 -24 -18 -20   33.30   19.50
 -18  20  24   34.70   21.70
 -20 -24  18   50.99   14.00
  24 -20  18   29.40   10.50
 -24 -18  20   34.40   14.50
 -20  24 -18   11.10   31.40
 -18  24  20   45.20   16.60
 -24  18 -20  -20.80   33.30
 -18  20 -24   42.40   39.10
 -20 -18 -24   41.90   17.50
 -18 -24 -20   46.30   18.70
 -20  20 -24   26.70   49.40
  20 -20  24   23.60    9.20
 -24 -20  20   18.20   11.30
 -20  24 -20    9.10   34.30
 -24  20 -20   73.19   41.80
 -24 -20 -20    5.40   17.50
  24 -20  20   26.60   10.20
 -20 -20  24    8.40   10.10
 -20 -20 -24    8.70   15.20
 -20  24  20   -3.20   13.40
 -20 -24 -20   24.10   26.00
   0  24 -22  151.68   45.50
  24 -22   0  196.28   24.50
   0  22 -24   72.79   40.40
   0 -24 -22  149.59   23.60
   0  24  22  197.28   26.80
  22   0  24  172.28   32.40
 -24   0  22   84.29   38.40
 -24 -22   0  127.29   30.50
  24   0  22   96.99   40.30
   0  22  24  131.59   25.00
 -24 -22   2   -6.40   14.40
 -22 -24  -2    3.20   13.10
  -2  22  24   -8.00    9.60
   2  22 -24   11.70   37.60
 -24  22  -2   -2.80   19.40
   2 -22  24    2.30    5.50
 -22  24   2   -3.20   14.40
   2  24  22   -4.60   10.20
  -2 -24  22   -2.50    5.30
  -2 -22 -24    5.20    9.10
  24 -22  -2    5.50    8.40
  22   2  24    0.10   15.50
  24  -2  22   -5.30   15.80
  -2  24 -22    3.20   30.40
  -2 -24 -22    4.30    9.00
  24 -22   2    2.70    8.20
 -24  22   2  -18.20   14.20
  22  -2  24  -11.10   13.80
  -2  22 -24  -24.60   29.20
 -22  24  -2   -2.20   18.40
  -2 -22  24    0.40    5.70
 -24  -2  22   -6.60   50.19
   2 -24  22    0.10    5.10
 -24 -22  -2   -0.80   16.10
  -2  24  22    1.00   10.40
   2  22  24    0.20   10.30
  22 -24  -2    6.70    8.40
   2  24 -22  -13.90   33.30
   4  24  22  200.78   27.90
 -24  -4 -22  110.79   29.80
 -22  24   4  113.99   29.00
  22   4  24  136.79   31.60
 -22 -24  -4  143.99   28.20
  24 -22  -4  152.48   22.80
  -4  22  24  155.98   25.30
  -4  24 -22   66.59   37.20
  -4 -22 -24  113.89   21.50
  -4 -22  24  141.19   19.50
 -22  24  -4  112.99   31.70
  22  -4  24  135.19   30.30
  24   4  22  175.18   49.30
   4  22  24  122.09   25.00
  -4  22 -24   79.39   42.90
  24 -22   4  177.08   23.60
  -4  24  22  165.78   26.30
 -22 -24   4  165.18   27.00
   4 -24  22  165.88   20.00
 -22  -4 -24  132.49   29.60
 -24  -6 -22   32.60   17.50
  24 -22  -6   18.10    9.60
  -6  22  24   44.40   13.70
   6 -22  24   17.20    7.10
  -6  24 -22   49.99   35.20
 -22  -6  24    5.50   18.30
  22   6  24   28.60   15.90
   6  24  22   29.10   13.30
 -22  24   6    2.60   11.50
 -24  22  -6   23.00   23.10
 -22  -6 -24   27.40   15.20
 -24 -22  -6  -10.80   17.70
  -6  24  22   28.20   13.20
   6  22  24   36.40   14.00
 -24   6 -22    5.60   43.30
   6 -24  22   19.70    7.30
 -24  -6  22   44.30   23.90
  -6 -22  24   34.40    9.50
  22 -24  -6   35.10   11.70
  -6  22 -24   84.79   41.00
 -24  22   6   15.10   12.80
 -22  24  -6   26.60   23.80
  -6 -24 -22   15.50   10.90
  -8  24 -22   57.09   35.90
   8  24  22   50.49   15.50
  -8  22  24   32.80   13.20
 -24  -8 -22   26.30   16.70
 -22  -8  24   47.50   20.30
  -8 -22 -24   45.90   13.20
  24 -22  -8   56.49   13.30
 -22  24   8   39.40   15.60
 -22   8 -24   27.50   39.00
 -24  -8  22    3.10   18.30
   8  22  24   39.70   15.00
  -8 -22  24   45.70   11.10
  24 -22   8   62.39   14.30
  22 -24  -8   42.00   13.30
 -24   8 -22   16.10   43.60
  -8  22 -24   26.90   36.10
 -22  24  -8   32.90   24.90
 -24  22   8   14.70   13.90
  -8  24  22   38.90   14.80
 -24  22 -10   26.70   24.10
 -24 -10 -22   19.60   15.90
  10 -22  24   12.20    6.60
 -10 -22 -24    3.40    9.80
 -22  24  10   11.00   13.70
 -24 -22  10    3.00   12.50
  22 -24  10   31.00   10.60
 -22 -10  24   -0.10   11.90
 -10  22  24    8.90   10.60
 -22  10 -24   -3.00   37.20
  24 -10  22   11.90   10.20
  22  10  24   13.80   16.30
  24 -22 -10   19.20    9.40
 -10  24 -22   -3.00   29.00
  10  24  22    9.90   12.20
 -10 -24  22   17.40    8.10
 -10  24  22   13.10   11.80
 -10 -24 -22    8.90   11.40
 -24  22  10    6.40   13.80
 -10 -22  24    2.10    6.70
 -24  10 -22    0.10   38.00
  10  22  24   12.30   12.90
 -10  22 -24   18.90   34.90
 -22  24 -10   23.50   23.60
 -22 -10 -24   18.50   14.30
 -22 -12  24   67.29   20.00
 -22  12 -24   45.30   44.60
  12  24  22   77.99   23.40
 -12  24 -22   28.50   34.00
 -24 -12 -22   95.69   26.60
 -22  24  12   46.50   15.80
 -12 -22 -24   88.29   19.70
 -12  22  24   81.79   20.20
  12 -22  24   55.49   11.50
 -24  22 -12   53.19   31.00
  12  22  24   47.40   16.60
 -22 -24  12   60.29   16.60
 -24  12 -22   46.00   40.60
 -12  22 -24   79.39   40.70
 -12  24  22   78.59   21.20
 -22  24 -12   36.40   28.50
  24 -22  12   69.69   15.00
 -22 -12 -24   89.49   25.80
 -22 -14  24    8.60   12.30
 -22  24  14    2.00   13.00
  14  24  22   25.30   15.60
  22 -24  14   36.90   11.30
  24 -14  22   21.00   10.70
 -24 -14 -22   11.60   16.50
 -14  22  24   20.90   12.80
 -24  22 -14   38.20   29.80
 -14  24 -22   47.80   34.80
 -14 -22 -24   46.80   15.40
 -22  14 -24   27.60   38.30
 -24  14 -22   10.10   38.40
  14  22  24   28.60   15.70
 -22  24 -14    3.40   26.90
 -22 -14 -24   15.50   14.90
 -24 -14  22   39.00   16.20
 -14 -24 -22   17.00   13.50
 -14  24  22   34.50   13.60
 -22 -24  14   21.90   11.30
  24 -22  14   42.50   11.40
 -14  22 -24   51.69   38.60
  24 -16  22   53.59   13.80
 -16  22  24   47.90   15.80
 -22  16 -24   29.40   41.40
  22 -24  16   41.70   11.80
  16 -22  24   24.00    9.30
 -24 -16 -22   51.49   20.00
 -24  22 -16   28.20   30.30
 -16  24 -22   38.60   37.10
 -16 -22 -24   68.89   18.10
 -16  24  22   72.29   19.90
  16 -24  22   34.60   10.10
 -16 -24 -22   37.60   16.30
  16  22  24   61.99   21.00
 -22  24 -16   51.39   33.60
 -16  22 -24   29.90   37.70
 -24  16 -22   10.30   38.20
 -22 -16 -24   65.49   20.00
  24 -18  22   33.90   11.40
  22 -24  18   40.60   12.40
 -24 -22  18   21.50   11.70
 -22 -18  24   11.80   10.10
 -18  22  24   27.60   29.90
 -18 -24  22   20.20   10.30
 -22 -24  18    9.10   10.60
 -18 -22  24   25.90   11.10
 -24 -18  22   21.20   12.20
 -18  24  22    3.70   18.80
  24 -22  18   20.50    9.60
 -24 -24   0  779.42   89.69
   0  24 -24  797.42  107.79
 -24 -24   2  274.87   42.30
  -2  24 -24  310.27   65.29
  -2  24  24  342.27   41.40
  24  -2  24  382.56   49.80
  24   2  24  262.77   45.80
 -24 -24  -4   51.29   18.90
 -24 -24   4   23.10   14.60
 -24  -4 -24   20.80   16.20
 -24  24  -4   20.60   21.10
 -24  24   4    0.30   13.80
  -4  24 -24   -0.70   30.00
  -4  24  24   35.70   13.60
   4  24  24   40.70   15.20
  24 -24  -4   37.20   12.10
  24 -24   4   15.50    9.90
  24   4  24   19.40   19.40
 -24 -24   6  128.39   24.60
 -24  -6  24  154.18   34.00
 -24   6 -24   78.49   47.80
 -24  24  -6  174.28   37.90
 -24  24   6  114.69   26.10
  -6 -24  24  103.09   16.70
  -6  24  24  106.69   23.50
   6 -24  24  134.99   17.30
  24 -24  -6   80.99   18.30
  24 -24   6  114.19   19.90
 -24 -24   8  294.87   45.00
 -24  -8 -24  317.37   48.50
 -24   8 -24  448.16   87.49
 -24  24  -8  360.56   56.79
  24 -24  -8  385.66   43.40
  24 -24   8  422.46   44.40
 -24 -24  10  490.85   52.79
 -24 -10 -24  492.85   56.99
 -24  10 -24  355.06   88.49
 -10 -24  24  368.56   47.10
 -10  24 -24  508.75   80.19
  10  24  24  415.66   53.39
  24 -24  10  397.56   49.30
 -24 -12 -24   22.40   17.10
 -24  12 -24   10.10   40.00
 -24  24 -12   13.50   25.30
 -12 -24 -24   -0.50   10.80
 -12  24 -24  -11.00   32.90
 -12  24  24   14.60   11.80
  12 -24  24   12.30    6.30
  12  24  24   23.50   15.30
 -24 -14 -24   42.00   19.30
 -24 -14  24   71.39   19.40
 -24  14 -24   76.29   45.60
 -24  24 -14   71.69   30.80
 -14 -24 -24   54.49   16.70
 -14  24 -24   74.59   39.80
 -14  24  24   80.09   21.40
  14 -24  24   37.80   11.20
  14  24  24   54.39   19.10
  -1  -1  25 1668.73  164.28
   1 -25  -1 1621.64  160.78
   1 -25   1 1306.07  159.78
   1  -1  25 1788.12  164.88
   1   1  25 1494.25  163.18
  25  -3  -1  282.67   31.40
  -3 -25  -1  282.47   29.90
   3  25  -1  192.58   36.00
  -1   3  25  290.37   35.50
   1  -3  25  279.47   35.60
   1 -25  -3  225.28   29.70
   3 -25   1  305.27   31.00
   3   1  25  219.18   34.10
  -3  -1  25  208.78   33.80
  -3  25  -1  209.08   39.10
   1  25  -3  271.57   40.50
  -3 -25   1  254.67   29.60
   1   3  25  244.58   34.50
  -1  -3  25  262.47   35.00
   3  -1  25  276.37   35.30
  -3   1  25  270.67   34.40
 -25  -3  -1  380.46   66.29
 -25  -1   3  149.79   54.79
  -3 -25   3    3.60    4.80
 -25  -3   3    7.60   31.70
  -3 -25  -3    2.60    4.30
  -3  25  -3   -0.30   14.70
  -3   3  25    2.20   10.50
   3  -3  25   -5.80    9.10
   3   3  25    2.30    7.60
   3  25  -3    9.00   13.20
   3  25   3    2.50    9.60
  -3  25   3   -6.10   11.90
   3 -25  -3    7.10    5.80
  -3  -3  25    2.00   10.00
   5  25  -1  379.56   43.20
  -1   5  25  283.57   38.90
   1  -5  25  303.97   39.60
  -5 -25  -1  343.27   35.50
   1 -25  -5  246.18   34.70
  -5  25   1  312.77   44.30
   5   1  25  362.16   40.50
  -5  -1  25  325.37   40.50
  -5   1  25  326.77   40.30
   1   5  25  292.97   39.30
  -1  -5  25  311.87   40.00
   5  -1  25  254.27   39.10
  -5  -1 -25  268.17   37.00
   5  25   1  371.16   40.50
  -3   5  25    6.30    9.90
   5 -25   3    2.30    5.50
   5  25  -3   -5.90   12.00
  -3  25  -5    7.60   17.20
  25  -5  -3    2.60    4.60
   3 -25  -5    4.40    5.20
  -5  25   3    2.90   12.50
  -3  -5 -25    6.30    8.00
   3  25   5    5.00   10.80
   5   3  25    5.80    9.60
  -5  -3  25    5.20   10.70
 -25   3   5  -14.00   30.80
  25  -3   5    8.20    6.00
   3  -5  25    4.90   10.40
  -5 -25  -3    5.30    4.70
  -5   3  25   11.20   11.00
   5  -3  25    7.90    8.50
  -3 -25  -5    2.00   12.80
  -5  25  -3   -0.70   15.50
   3 -25   5    1.20    5.00
   3  25  -5  -17.90   14.10
  -3  -5  25    6.40   11.00
  -5  -3 -25   -1.30    7.70
  -5 -25   3   10.50    6.40
   3   5  25    4.40   10.20
  -3 -25  -5    2.40    4.70
  -3  25   5   20.00   11.30
   5  25   3   13.80   11.10
  -5 -25  -5   88.59   22.40
  25  -5   5   80.59   14.40
   5  -5  25   81.79   19.90
  -5  25  -5   46.60   22.50
   5  25  -5  123.99   27.10
   5  25   5  109.89   20.30
   5 -25   5  101.69   14.50
   5 -25  -5   91.29   13.80
  -5  -5  25   79.69   20.50
  -5   5  25   59.99   18.20
  -5  25   5   89.39   22.40
   5   5  25   65.69   17.00
   7   1  25 1352.36  133.19
  -1  25  -7 1049.09  135.89
 -25  -7   1 1038.10  148.19
  -1   7  25 1408.96  132.99
  25  -1   7 1214.58  129.59
   7  25  -1 1423.66  133.29
   1 -25  -7 1249.88  129.19
   7 -25   1 1173.78  128.99
  -7  -1  25 1262.77  133.09
   1   7  25 1117.69  131.29
   7  -1  25 1373.56  132.99
  -1  -7  25 1356.86  133.59
  -7   1  25 1206.58  132.29
 -25   3   7  104.19   47.90
   7  25  -3  160.08   30.70
  -7  -3  25  175.78   30.00
   3  -7  25  185.98   29.90
 -25  -7   3  222.18   52.19
   3 -25  -7  178.98   23.50
   3  25   7  183.98   28.60
  -3   7  25  171.08   27.80
   7   3  25  174.08   28.20
   7 -25   3  227.18   24.90
  -3  25   7  248.18   29.70
  -3  -7  25  210.78   31.30
  -7   3  25  205.88   30.80
   3   7  25  232.18   29.40
  -3 -25  -7  192.78   31.40
  -7  -3 -25  175.08   25.90
   7  -3  25  180.48   28.60
   3  25  -7  147.29   36.30
 -25  -3   7  140.79   48.80
   7   5  25   65.29   18.20
  -7 -25  -5   50.99   12.10
   7 -25   5   75.29   12.60
  -7  -5  25   59.19   17.40
   5  -7  25   62.89   17.60
  -7  25   5   84.29   22.30
 -25  -5  -7   38.40   35.20
  -5 -25   7   41.90   11.20
  -5  25  -7   27.60   20.00
  25  -5   7   41.00   11.50
  -5  -7 -25   74.29   16.10
  -5   7  25   64.89   17.00
 -25  -7   5   36.40   32.50
  -5  25   7   68.49   18.30
 -25  -5   7   56.49   35.80
  -7  25  -5   40.70   20.90
  -5 -25  -7   60.19   12.40
   5  25  -7   54.49   20.40
  -5  -7  25   81.49   20.80
   5   7  25   79.39   19.10
  -7   5  25   65.09   18.10
  25  -7   5   76.19   13.40
   7  -5  25   86.09   19.70
   7  -7  25  815.82   81.79
  -7  -7  25  835.12   83.79
 -25  -7   7  650.63   95.49
  -7   7  25  695.93   78.99
  -7 -25  -7  682.03   75.49
   7  25  -7  571.54   82.79
  -7  25   7  790.52   80.29
 -25  -7  -7  652.03   99.79
   1  25   9 1525.55  187.38
   9   1  25 2029.20  189.38
   1  -9  25 1908.51  190.18
  -9  -1  25 2059.99  190.78
  -1  25  -9 1528.45  192.38
  -9   1  25 1705.53  188.58
   9  -1  25 1987.80  189.38
 -25  -1   9 1816.62  210.28
   1  25  -9 1865.51  194.28
  -1  -9  25 2027.80  190.88
   9  25   1 1551.14  186.88
  -9 -25  -3  706.83   68.59
  25  -9  -3  663.93   68.09
  -3   9  25  602.04   69.99
   3  -9  25  554.84   71.29
   3  25   9  644.34   70.19
   9   3  25  529.05   70.09
  -9  -3  25  640.94   73.09
  -9  25   3  742.53   75.69
  25  -3   9  611.04   67.39
  -9  25  -3  517.95   75.69
  -3  -9  25  585.74   71.99
   9  25   3  543.75   69.09
  -3 -25  -9  642.94   71.59
  -9 -25   3  646.44   67.89
   3  25  -9  717.43   78.19
   9  -3  25  594.34   70.69
   3   9  25  724.23   71.59
   9   5  25  370.86   46.20
 -25   5   9  346.57   72.09
   5  -9  25  442.16   49.20
  -5  25  -9  376.56   54.59
  -9  25   5  342.97   46.30
 -25  -9   5  341.17   63.19
  -5   9  25  375.06   45.70
   5  25   9  432.96   46.60
   5   9  25  335.67   45.50
  -9   5  25  391.76   46.80
  -5 -25  -9  289.57   46.70
   9  -5  25  421.56   47.40
 -25  -9  -5  392.76   68.09
  -9  25  -5  308.07   52.99
   9 -25  -5  348.07   41.80
  -9 -25   5  338.17   42.30
  -9  -5 -25  408.26   44.50
   9  25   5  450.45   46.40
 -25  -7  -9 1111.19  147.39
  -7 -25   9 1248.08  124.99
   7  -9  25 1234.88  129.39
   9   7  25 1243.88  127.79
  -7   9  25 1292.87  128.09
   9  -7  25 1247.48  129.29
   7   9  25 1110.99  126.99
  -9   7  25 1012.30  126.49
  -9 -25   7 1253.07  125.19
  -9  -7 -25 1258.17  126.29
   9  25   7 1235.88  127.09
  25  -9   7 1145.09  125.59
  -9  -9  25 1870.31  195.28
  -9   9  25 1919.51  197.08
 -25  -9  -9 1972.00  216.88
  -9  25   9 1771.02  196.28
   9  25   9 1813.32  195.38
   9  -9  25 1937.71  198.38
   9   9  25 2033.50  197.78
  -1  25 -11  279.47   52.09
   1 -11  25  316.47   41.20
 -11 -25  -1  413.36   43.40
  -1  11  25  360.66   45.30
   1 -11  25  301.17   46.60
   1 -25 -11  411.16   45.10
   1  25  11  368.16   45.20
  25 -11  -1  353.96   42.60
  11   1  25  358.16   46.20
  11  -1  25  378.26   46.10
   1  25 -11  374.96   53.79
  -1 -11  25  435.06   48.90
 -11  -1 -25  324.07   43.60
  -1  25  11  421.96   46.40
   1  11  25  409.06   45.90
 -11  25  -1  432.76   51.79
  -3  25 -11   10.70   19.50
 -25   3  11  -17.80   29.70
  -3  11  25    9.00   10.10
 -25  -3 -11    6.50   31.00
 -11  25   3   13.00   15.30
  -3 -11 -25    3.30    7.50
  -3 -25  11    4.00    5.40
   3 -25 -11    2.70    9.10
   3 -11  25   11.70    7.00
 -11 -25  -3    7.10    7.00
   3  25  11   10.30   10.40
   3 -11  25    5.90   11.70
  11 -25   3   12.50    6.90
  25  -3  11    7.40    6.20
  11   3  25    1.40   10.30
  -3  25  11   28.40   13.20
  -3 -25 -11    4.90   11.50
 -11  -3 -25    8.90    9.30
 -11  25  -3    7.90   17.50
  11  25   3    2.90   10.50
  -3 -11  25   -1.50    4.00
  11  -3  25    4.00   11.10
  25 -11   3    7.10    8.10
 -11 -25   3   12.70    7.50
   3  11  25    4.90   10.30
 -11   3  25    3.30   11.70
   3  25 -11    8.20   18.80
 -25  -3  11    7.80   27.40
  -3 -11  25   -2.10   11.40
  -5  11  25    7.10    9.50
 -11  25   5   11.60   14.00
  -5  25 -11    8.80   20.50
 -25  -5 -11    2.40   29.10
  11   5  25    7.10   11.60
  -5 -25  11    9.20    6.20
 -11 -25  -5    0.50    6.40
   5  25  11    0.40   10.10
 -25   5  11  -15.10   31.40
  -5 -11 -25    6.30    8.50
  25  -5  11    8.30    6.80
   5 -11  25    7.00    7.10
   5 -11  25    5.50   11.80
  -5 -11  25    4.20    5.50
   5  11  25    2.00   10.30
  11 -25  -5   12.30    6.50
  11  -5  25   16.40   12.50
   5  25 -11    1.50   19.30
 -11  -5 -25   11.50    9.40
  11  25   5    2.30   10.40
  -5 -11  25   15.80   14.70
 -25  -5  11    9.30   27.00
  -5  25  11   14.90   12.30
  -5 -25 -11    6.30   12.10
 -25 -11  -5    1.70   27.10
 -11  25  -5   22.00   19.60
 -11   5  25   22.20   12.80
  -7  25 -11  139.89   38.30
   7 -11  25  166.18   20.70
 -25  -7 -11   93.59   42.70
  -7  11  25  168.98   25.50
   7  25  11  117.59   22.80
  11   7  25  132.39   25.00
   7 -11  25  158.98   28.10
 -11  -7  25  185.28   24.30
 -25  11  -7  225.88   44.90
 -25  -7  11  198.08   43.90
  11 -25  -7  137.89   20.60
 -11   7  25  177.98   28.20
   7  25 -11  170.08   39.30
  -7 -11  25  148.39   21.50
   7  11  25  141.39   25.20
  11  -7  25  156.18   27.60
 -11  25  -7  120.09   34.80
  11  25   7  107.59   23.70
 -25 -11  -7  119.79   41.70
  -7 -11  25  149.69   31.60
 -25  11  -9  343.17   63.69
  -9 -11 -25  255.47   36.80
   9 -11  25  346.97   42.90
 -25  -9 -11  213.98   59.19
  11   9  25  328.67   40.50
  -9  25 -11  354.46   53.79
   9 -11  25  265.77   34.90
 -11  -9  25  324.77   38.00
   9  25  11  306.37   38.80
 -11  25   9  241.68   38.30
 -25   9 -11  406.86   66.69
 -11  25  -9  296.27   50.39
  11  -9  25  363.46   43.00
   9  11  25  324.37   40.00
  11  25   9  298.27   38.80
  25 -11  11    3.20    7.70
  11  25  11    5.10   10.60
 -25 -11  11    6.80   23.50
 -11  25 -11   14.10   23.40
 -25  11  11   26.90   36.40
 -25 -11 -11   30.10   33.20
 -11 -11  25   12.50    9.20
 -11  11  25    3.80   11.00
 -25  11 -11    9.70   29.60
 -11  25  11    4.90   11.30
 -11 -11 -25   12.80   10.60
  11 -11  25   -0.50   12.00
  11 -11  25    2.90    5.70
 -11 -25  11    7.80    7.30
  11  11  25    6.40   11.60
 -13   1 -25   89.39   20.30
 -13  25   1   99.09   29.60
  13   1  25  121.69   23.50
   1 -13  25  113.39   27.00
  -1  25 -13  147.99   36.40
 -25   1  13   89.09   40.50
  -1  13  25   99.99   20.10
  25 -13  -1  134.09   19.10
 -25  -1  13  168.98   46.30
 -13  -1 -25  118.89   21.50
  -1 -13  25   99.29   26.10
 -13  25  -1  114.99   31.10
   1  25 -13   64.89   28.30
  -1  25  13  153.18   23.00
 -25 -13  -1  107.49   36.50
 -13 -25   1   97.59   18.10
  13  -1  25  122.09   23.40
   1  13  25  142.49   23.10
  25 -13   1  117.39   19.20
  13 -25   3   31.00   10.50
 -25  -3 -13   -5.50   33.00
   3 -13  25   61.99   11.40
 -13 -25  -3   71.69   14.00
  -3  13  25   58.09   15.80
   3 -13  25   49.90   17.40
   3  25  13   43.80   14.40
 -25   3  13  140.99   46.60
 -13  25   3   55.89   19.20
 -25 -13   3   41.70   27.20
  25  -3  13   35.30   10.30
  13   3  25   61.29   16.50
  -3  25 -13   14.20   22.40
  -3 -13 -25   76.29   15.30
 -13  25  -3   79.29   25.00
  -3  25  13   45.90   14.60
   3  25 -13   54.99   24.30
  -3 -13  25   39.30   18.10
  13  -3  25   40.70   14.80
  25 -13   3   53.79   13.70
 -13  -3 -25   53.19   14.60
 -25  -3  13   45.60   28.80
  -3 -13  25   36.40    9.80
 -13 -25   3   45.80   12.70
   3  13  25   47.10   14.90
  25  -5  13   43.70   11.10
  13   5  25   30.30   14.20
 -25  13  -5   29.90   22.90
  13 -25   5   42.30   10.40
  -5  25 -13   51.09   24.90
 -25   5  13   83.89   41.00
   5  25  13   33.60   12.50
 -25  -5 -13   13.60   32.70
   5 -13  25   41.40   16.90
 -13 -25  -5   65.09   13.90
 -13  25   5   82.49   21.70
  -5 -13 -25   31.60   11.60
 -25 -13   5   -6.70   22.30
  -5  13  25   41.00   12.90
 -13 -25   5   35.70   11.60
 -13  25  -5   77.79   25.30
  -5  25  13   77.49   17.60
   5  13  25   48.50   14.90
  13 -25  -5   56.29   11.90
  13  -5  25   53.69   16.70
 -25  -5  13   -1.00   26.00
 -13  -5 -25   37.90   13.00
  -5 -13  25   37.10    9.80
 -25 -13  -5   30.70   28.60
  -5 -25 -13   39.50   14.90
  13 -25   7   72.39   13.60
 -25  13  -7   57.69   29.60
 -25   7  13   26.90   35.50
 -13  25   7  115.99   22.20
  -7 -13 -25   89.69   18.10
  13   7  25   90.99   21.50
   7 -13  25   74.09   20.40
  -7  13  25   90.39   18.60
  -7  25 -13   60.59   27.90
   7  25  13   56.49   18.20
 -25  -7 -13   40.30   35.90
 -13  -7  25   81.19   18.40
  25 -13  -7   93.79   15.00
  13  -7  25   95.59   23.00
   7  13  25  106.19   21.10
  25 -13   7   93.39   16.70
  -7  25  13   72.69   20.60
  -7 -25 -13   65.19   19.10
 -25   7 -13  137.59   46.10
 -25 -13  -7   37.90   29.70
 -13   7  25   84.39   24.20
 -25  13  -9  246.58   52.39
  -9 -13 -25  161.38   24.90
   9 -13  25  209.38   31.50
 -25   9  13  160.18   54.59
   9 -13  25  149.59   21.60
  -9  25 -13  120.29   37.30
  -9 -25  13  174.78   23.00
  -9  13  25  193.68   26.50
   9  25  13  121.49   25.00
 -25   9 -13  127.69   47.80
 -13  25  -9  138.19   40.00
  13  25   9  184.28   28.60
 -11 -13 -25   26.80   12.10
  11  25  13   34.70   12.90
 -25 -13  11   -1.90   21.20
 -13 -11  25   28.60   11.30
  13  11  25   42.00   14.50
 -25  13 -11    8.60   28.10
 -11 -25  13   38.30   11.00
  11 -13  25   20.80    8.00
 -25  11  13   36.00   39.90
 -13  25  11   15.10   12.70
 -11  13  25   27.30   12.10
  25 -11  13   33.50   10.70
 -11  25 -13   18.10   24.40
  13 -11  25   24.30    9.40
 -25 -13 -11   12.60   33.10
 -13 -25  11   13.20    8.40
 -11 -25 -13    5.90   14.00
  13  25  11   32.70   13.30
 -11 -13  25   17.10    9.00
 -25  11 -13   41.60   34.40
  11  13  25   16.20   12.70
  25 -13  11   24.90   10.40
 -13 -11 -25   23.70   12.10
 -13  11  25   25.50   14.40
 -13  25 -11   11.70   22.40
  13 -11  25   26.80   15.80
 -11  25  13   40.50   14.10
  13  13  25   71.79   20.50
 -25  13 -13  112.29   39.80
 -25  13  13   47.20   45.40
 -13  25  13   47.90   17.50
  13 -13  25   51.69   12.40
  13  25  13   77.89   19.70
  -1  15  25  741.03   82.79
 -15   1 -25  860.91   86.99
  -1 -25  15  759.72   79.59
  15 -25   1  761.02   80.79
   1  25  15  693.43   82.79
  25 -15  -1  857.51   83.09
 -15  25   1  853.51   89.79
 -25 -15  -1  719.23   96.89
  -1  25  15  690.63   83.39
   1  15  25  841.92   84.19
  15 -25  -1  657.13   80.29
   1  25 -15  770.62   94.19
  15  -1  25  833.62   85.59
  -1 -25 -15  767.42   82.49
  25 -15   1  639.24   81.39
 -25  -3 -15   43.40   38.40
 -25  15  -3   64.39   27.50
  -3  25 -15  179.28   40.50
 -25   3  15   76.59   39.00
  -3  15  25  102.69   20.40
   3  25  15   87.79   20.40
  15   3  25  117.99   24.10
 -15 -25  -3   83.49   18.10
  -3 -25  15   84.59   14.50
   3  15 -25  108.09   42.40
 -15  25   3  104.59   26.30
  -3 -15 -25   86.79   18.20
  -3 -15  25  127.69   16.00
  -3  25  15  151.78   23.70
  15 -25  -3  120.89   17.50
  15  -3  25  107.19   23.80
 -15  -3 -25  105.89   22.40
   3 -25  15  116.69   15.80
   3  25 -15   54.39   27.90
  25 -15   3   92.69   17.80
   3  15  25  107.19   21.80
  15   5  25  119.79   24.90
   5  25  15  180.28   25.40
 -15  25   5   85.69   25.70
  -5  25 -15  123.29   36.60
 -25  15  -5  130.39   36.70
   5  15 -25   88.89   46.60
   5 -15  25  152.18   19.10
  -5  15  25  100.09   21.70
  -5 -15  25  146.69   18.80
 -25   5 -15  117.09   49.30
  -5  25  15  156.58   25.40
  15  -5  25  139.79   27.20
   5  25 -15  184.48   43.70
   5  15  25  175.78   26.10
   5 -25  15  104.79   17.70
 -15  25   7  539.75   67.89
  -7  25 -15  742.63   84.69
  25 -15  -7  627.94   65.79
  15   7  25  649.24   70.19
  -7  15  25  510.15   66.59
   7  25  15  644.44   68.49
 -15  -7 -25  604.04   68.69
 -25   7 -15  435.46   89.79
  -7 -25 -15  652.53   69.79
 -15 -25   7  654.13   67.19
   7  15  25  658.23   69.09
  15  -7  25  481.45   69.09
  -9 -15 -25  883.01   90.09
  -9  25 -15  722.83  103.19
  -9  15  25  765.62   90.19
 -25  15  -9  825.42  105.39
  25  -9  15  755.12   89.19
 -15  25  -9  700.03   99.49
 -15  -9 -25  998.40   92.59
 -25   9 -15  795.32  114.29
  15  -9  25  898.51   94.29
   9  15  25  916.01   92.59
  25 -15   9  849.12   89.99
  11 -15  25   67.49   13.20
 -11  25 -15   59.89   31.60
 -15  25  11   80.69   29.30
 -11 -15 -25   85.49   19.00
 -25  11  15   64.79   44.40
 -25  15 -11  108.19   36.80
  15  11  25   82.89   21.60
  11  25  15   77.59   20.70
 -11  15 -25   47.40   40.20
 -25  11 -15   21.00   38.70
 -11 -25 -15   65.69   20.20
 -15  11  25  102.69   25.70
 -15  25 -11   32.10   29.20
  11  15  25  100.79   21.30
 -15 -25  11   82.59   15.80
  25 -13  15   20.60    9.60
 -25  13  15   26.30   43.70
  15  13  25   10.20   12.00
 -15  13 -25   -5.80   32.60
  13  25  15    4.60   11.00
 -13 -25  15    2.70    7.10
 -15  25  13    8.30   11.20
 -15 -13  25    4.40    9.40
  13 -15  25    7.70    6.10
 -25 -15  13   27.20   21.10
 -13 -15 -25   -1.90   10.20
 -13  25 -15    8.10   27.00
 -13 -15  25   15.20    9.70
  13  15  25   17.30   12.70
 -15  13  25   18.10   13.50
 -25 -13  15   16.30   20.50
 -13  25  15    2.50   10.10
 -13  15 -25    4.90   36.10
 -15  25 -13    3.30   25.00
  25 -15  13    9.40    8.00
  15 -13  25   11.10    8.20
 -25  15  13   -2.40   37.30
 -13 -25 -15    8.60   14.20
 -15 -13 -25   16.20   12.30
 -15  25 -15  245.58   58.49
 -25  15 -15  455.05   73.59
 -15 -15  25  273.07   40.80
  15  15  25  377.36   45.00
 -15  15  25  360.46   45.50
 -15 -15 -25  349.07   43.50
 -15 -25  15  372.66   41.00
  -1  17  25 1001.80  115.69
  -1 -25  17 1259.37  113.39
  -1  25 -17  934.81  127.29
  25 -17  -1 1140.09  115.69
 -25  17  -1  988.90  122.29
  17   1  25 1087.39  117.69
  17  -1  25 1233.68  119.79
  -1  17 -25 1318.57  141.19
  -1  25  17  987.50  115.99
  17 -25  -1  922.91  113.89
 -17 -25   1 1187.58  117.39
  17   3  25  350.06   48.50
  -3  17  25  398.56   47.40
 -17 -25  -3  431.86   48.20
  -3  25 -17  511.45   67.89
 -25  17  -3  385.36   59.79
  -3 -17  25  342.87   43.30
 -17  -3 -25  344.77   47.90
   3 -25  17  439.96   44.20
  17  -3  25  409.16   50.69
 -25 -17  -3  327.77   59.79
   3  17  25  422.36   48.50
 -17 -25  -5  152.58   22.90
  -5  17  25  155.68   23.00
  17   5  25  160.08   26.10
  25  -5  17  105.19   18.50
  -5  25 -17  148.39   43.10
 -25   5  17  200.58   52.49
   5  17 -25  156.08   55.59
   5 -17  25  111.29   17.30
  25 -17  -5  134.79   19.50
 -25  17  -5   78.39   29.00
 -17  25   5   75.29   22.70
  -5 -25 -17  134.89   23.10
  -5  17 -25  139.99   48.50
  -5 -17  25  104.09   17.20
  17  -5  25  156.28   27.40
 -17  25  -5  131.89   35.60
   5  17  25  165.28   24.80
   5  25 -17   88.79   34.30
 -25   5 -17  167.28   53.89
 -25  -5  17   92.19   34.60
  17 -25  -5  114.19   19.90
   7  25  17  923.91  107.59
 -25   7  17 1079.09  134.29
  -7  17  25 1041.40  107.69
 -25  17  -7  933.21  119.09
  -7 -25 -17 1118.59  109.39
  -7 -17  25 1129.59  106.09
  -7  17 -25  931.31  141.19
 -17 -25   7 1091.09  109.09
 -25   7 -17  789.92  130.09
  -7  25  17  889.01  114.49
  -9  25 -17  783.82   97.39
  -9 -25  17  640.84   78.09
  -9 -17  25  796.52   79.69
 -17  -9 -25  802.42   85.49
 -17  25  -9  876.01   94.39
  17 -25  -9  571.74   86.29
  17  11  25  302.77   39.30
  11  25  17  201.88   36.80
 -11  17  25  239.38   34.20
 -11 -17 -25  261.67   34.20
 -11  25 -17  302.07   57.19
  17 -25  11  307.27   31.80
  25 -17  11  237.38   32.80
 -17  25 -11  288.67   51.89
 -17 -11 -25  268.87   36.90
 -11  17 -25  163.08   54.49
 -25  11 -17  229.28   68.09
 -13  25 -17   97.19   38.10
  17 -25  13  132.09   17.60
 -25  17 -13  223.48   50.79
 -13 -17 -25   84.19   21.80
 -17  13 -25  191.28   53.19
  17  13  25  124.59   27.00
 -13 -25  17  136.89   19.50
 -13  17  25  126.79   24.00
  13 -25  17  104.89   16.20
 -13 -17  25  116.29   19.90
 -13  17 -25  251.67   64.69
 -25  13 -17   99.89   45.20
 -25  17  13   34.50   46.40
 -17  25 -13   84.59   34.60
  13  17  25   86.89   23.30
 -17 -25  13  120.59   19.80
 -25 -13  17  145.09   32.00
  25 -17  13  121.19   19.60
  17 -13  25   74.29   22.10
 -15  17  25  594.24   62.99
  15 -17  25  600.14   58.39
 -25  17 -15  446.16   79.89
 -17  15 -25  400.56   89.09
 -25 -17  15  589.84   66.99
 -17  25  15  609.54   62.39
 -15  25  17  469.55   60.79
 -15  17 -25  512.15   92.09
  25 -17  15  494.75   58.89
 -25  15 -17  487.45   84.79
  15  17  25  433.06   61.99
 -17  17 -25  696.63  111.99
  25 -17  17  675.53   82.49
 -17  25  17  764.52   85.09
 -17 -17 -25  775.22   85.79
  17  17  25  852.11   87.39
 -25  17 -17  888.31  108.09
  25 -19  -1  433.36   45.90
   1  19 -25  437.46   78.99
 -19 -25  -1  321.47   46.00
  -1  19  25  399.36   46.80
  19  -1  25  333.77   52.29
   1  25 -19  294.77   64.09
  25   1  19  477.75   63.59
 -25 -19  -1  353.16   56.19
 -19  -1 -25  442.76   48.80
 -19  25  -1  299.77   53.79
 -19  25   3    1.80   14.40
  -3  19  25    8.90   10.20
   3 -19  25   10.10    6.80
 -25   3  19  -17.90   27.00
  25  -3  19    7.30    6.80
  25 -19  -3    9.80   10.40
  -3 -19 -25    2.90    8.50
  19   3  25    3.30   14.40
  -3 -25  19    2.40    5.10
  -3  25 -19    6.80   42.80
 -25  19  -3    7.00   21.70
   3  19 -25   23.00   36.70
 -25 -19   3   -2.00   18.30
   3  25  19    1.00   11.00
  19 -25   3    7.30    8.00
 -19 -25  -3    1.40   10.00
   3  25 -19    2.10   30.50
 -19  -3 -25    9.90   12.30
 -25  19   3    6.10   16.00
 -19  25  -3    1.80   19.20
  -3 -19  25    6.50    6.20
  -3  25  19    6.40   11.70
 -25 -19  -3   -4.20   18.90
  -3 -25 -19   11.10   10.20
 -25   3 -19  -32.70   37.20
  19 -25  -3    7.70    8.10
 -25  -3  19    5.50   24.00
  25 -19   3   11.00    9.50
   3  19  25   14.50   11.60
  25 -19  -5   22.70    9.30
 -25  19  -5   -1.60   21.20
  -5 -25  19   29.00    8.60
  25  -5  19   29.50   10.10
 -25   5  19   54.39   37.80
  -5 -19 -25   35.30   11.40
  -5  19  25   26.50   12.30
  -5  25 -19    1.90   26.80
   5  25  19   23.00   12.60
  19 -25   5    6.40    7.80
 -19 -25  -5   28.00   12.70
 -19  25   5    3.70   13.30
 -25 -19   5   17.10   18.70
 -19  -5 -25   13.60   14.40
  -5  19 -25    2.10   33.70
 -19  25  -5   19.10   21.30
  -5 -25 -19   31.90   11.90
 -25 -19  -5    8.40   21.10
  -5  25  19   13.40   12.70
  19  -5  25   23.50   15.00
 -19 -25   5   16.80   11.80
 -25   5 -19    4.60   39.60
   5  19  25   12.30   11.90
  -5 -19  25   12.70    7.00
 -19  -7  25  251.37   38.30
  19   7  25  270.97   36.80
  -7  25 -19  337.87   57.99
 -19  25   7  280.07   35.30
  -7 -19 -25  228.58   31.90
 -25  19  -7  296.87   50.69
  -7  19  25  208.58   32.70
   7  25  19  201.98   33.40
   7  19  25  205.28   34.90
 -19 -25   7  259.77   33.30
  -7  19 -25  220.58   57.19
  25 -19   7  192.88   31.20
  -7 -25 -19  278.37   35.00
  19  -7  25  259.37   38.10
 -19  -7 -25  314.27   37.30
 -19  -9  25  507.75   55.59
  19   9  25  499.05   54.89
  25  -9  19  361.56   49.20
 -25  19  -9  330.27   65.19
  -9 -25  19  392.16   48.00
  -9  25  19  505.25   53.19
 -25   9 -19  347.57   85.19
  -9 -19  25  373.26   48.10
  -9 -25 -19  370.16   51.49
 -25  -9  19  541.75   64.39
  -9  19 -25  500.15   81.29
   9  19  25  501.45   53.49
  25 -11  19   41.40   12.40
 -19  11 -25   10.40   40.50
  19  11  25   28.30   15.00
 -19  25  11   58.89   16.50
 -11 -19 -25   37.80   13.20
 -11  25 -19    0.40   29.30
  25 -19 -11   26.30   10.20
  11  25  19   27.40   14.30
 -11  19  25   30.70   12.80
 -25  19 -11    9.80   26.60
  11 -19  25   27.50    8.50
 -19 -11  25   16.10   12.80
 -25  11 -19   34.70   39.30
  11  19  25   20.00   13.30
 -25 -11  19   37.10   20.50
 -19  25 -11   27.60   26.10
 -11  19 -25   29.10   38.20
 -11  25  19   31.40   13.90
 -19 -11 -25    3.80   12.90
 -11 -25 -19    8.50   12.70
 -25  19 -13  -17.10   26.20
  19 -25  13   -0.10    5.70
  13  25  19    2.00   13.10
  19  13  25    4.30   14.10
 -19  13 -25   -1.00   36.60
 -19  25  13    6.40   11.00
 -13 -25  19   -1.00    6.70
 -13  25 -19   32.60   32.00
 -19 -13  25   -1.40    9.20
 -13  19  25   -6.60   10.30
  25 -13  19    3.70    7.90
 -13 -19 -25    2.80   10.30
  13 -19  25   -2.20    5.60
 -13 -25 -19    4.40   12.90
 -25  13 -19   27.90   37.40
 -19  25 -13  -10.00   24.20
  13  19  25   -5.50   11.20
 -19 -13 -25   -5.80   10.80
 -13  25  19  -10.10   10.30
 -25 -13  19   -3.30   14.70
 -13  19 -25   -5.50   35.10
  25 -19  13    0.00    7.40
  13 -25  19    0.10    4.90
 -19  15 -25  186.18   53.59
 -25  19 -15  200.08   50.59
 -25 -19  15  119.69   25.80
 -19 -15  25  136.49   22.20
 -15 -25  19  103.19   18.40
 -15  19  25  114.19   23.40
  15 -19  25  100.89   16.90
 -15 -19  25  131.09   20.30
 -25  15 -19  173.98   50.99
 -15 -25 -19  136.19   29.20
 -19 -25  15   86.19   18.80
  15  19  25  147.59   27.00
 -15  19 -25  223.68   64.39
  19 -25  17  217.08   27.70
 -19  17 -25  211.48   58.29
 -25  19 -17  282.37   64.19
 -17  19  25  251.57   37.00
 -25  17 -19  313.97   67.89
  25 -19  17  201.68   29.10
 -17  19 -25  178.78   55.59
 -17 -25 -19  243.08   37.70
  17  19  25  212.98   36.30
 -19  25 -17  274.87   56.69
  25 -19  19   59.39   14.50
 -25 -19  19   61.19   18.80
 -19  19 -25   50.69   42.10
 -19  25  19   36.40   17.80
 -19 -19 -25   55.69   18.30
 -19 -19  25   56.39   15.20
 -25  19 -19   65.89   39.40
 -19 -25 -19   30.90   18.60
   1  21 -25   21.80   37.50
  -1  25 -21   25.60   32.40
   1 -21  25   92.99   14.80
  21   1  25  101.59   27.20
  25 -21  -1   70.49   16.90
 -21 -25  -1   60.49   18.70
  -1 -25  21   91.29   14.50
  -1  21  25   64.79   19.40
   1  25  21  121.79   23.00
   1  25 -21   82.19   37.10
  21  -1  25  104.59   27.30
  25   1  21   44.90   37.70
  -1  21 -25  171.08   47.90
  -1 -25 -21   88.59   19.40
   1  21  25  127.49   21.90
  21 -25  -1  106.29   18.00
  -1  25  21   91.49   21.50
 -21 -25   1  104.79   21.00
   3  21 -25    2.60   42.00
  -3 -21 -25   16.90   10.00
 -25 -21   3   15.90   17.40
 -25  21  -3   59.09   25.50
 -25  -3 -21   -1.20   14.90
   3  25  21   50.39   15.40
   3 -21  25   30.60    9.50
  -3 -25  21   29.00    8.90
  -3  25 -21   19.40   29.50
  21   3  25   43.70   18.20
 -21  25   3   29.20   16.90
  -3  21  25   38.30   13.80
   3  25 -21   -4.40   38.40
  25 -21   3   28.50   11.00
 -25  -3  21   13.50   25.50
  -3  25  21   40.30   15.00
  21 -25  -3   23.40   10.00
  21  -3  25   23.30   16.60
   3 -25  21   24.00    8.40
   3  21  25   23.10   13.20
  -3  21 -25   40.10   36.00
 -21  -3 -25    2.20   12.60
 -21  25  -3   42.30   22.70
 -25  21   3   20.00   17.20
  -3 -25 -21   47.80   12.60
 -25 -21  -3   14.60   17.80
  21   5  25   31.50   17.20
  21 -25   5   19.10   10.40
  -5  25 -21   22.90   30.00
 -25  21  -5   27.90   23.70
  -5  21  25   40.50   14.10
   5 -21  25   15.00    7.60
 -25  -5 -21   16.70   17.60
 -21  25   5   48.30   17.10
  -5 -21 -25   27.00   11.10
   5  25  21   24.00   13.20
 -21  25  -5   31.70   23.40
  -5  25  21   44.20   14.60
 -21 -25   5   14.30   11.90
  21  -5  25   26.80   16.10
   5  21  25   31.50   13.90
  25 -21   5   33.30   11.70
 -25   5 -21    2.40   42.00
 -25 -21  -5   46.90   22.50
   5 -25  21   37.20    9.60
 -25  -5  21   12.50   20.60
  -5 -21  25   51.19   10.30
  -5  21 -25   -9.80   31.70
  -5 -25 -21   34.20   12.20
 -21  -5 -25   27.00   15.70
   7  25  21   19.50   12.90
 -21  25   7   24.20   13.20
   7 -21  25   21.10    7.30
 -25  21  -7   19.70   24.80
  -7  21  25   41.60   13.90
  -7 -21 -25   20.10   10.60
  -7 -25  21   16.90    7.10
  21   7  25   15.20   14.80
  25 -21  -7   30.40   10.50
  -7  25 -21   48.00   34.40
 -21  -7  25   12.60   16.80
 -25  -7 -21    9.60   15.40
  -7  25  21   23.50   13.50
  -7  21 -25    3.70   35.40
   7  21  25   44.20   15.30
 -21  25  -7   -7.00   29.10
  21 -25  -7   19.10   10.10
 -25   7 -21   42.90   45.50
 -21  -7 -25   10.90   13.30
  21   9  25   92.89   23.10
  21 -25   9   91.19   15.80
  -9  21  25   82.49   20.00
 -25  -9 -21   74.39   23.00
 -21   9 -25   65.89   43.20
 -25 -21   9   42.90   19.00
  -9  25 -21   67.79   35.60
 -25  21  -9   66.29   30.40
 -21  -9  25  123.39   24.20
 -21  25   9  126.49   24.70
  -9 -21 -25   77.89   18.00
   9  25  21  111.09   23.10
 -25   9 -21  104.99   51.39
   9 -25  21   61.09   12.80
   9  21  25  122.19   22.90
 -25  -9  21   64.69   25.70
  25 -21   9   69.59   16.10
 -21  25  -9   41.90   26.30
  -9  25  21   88.59   20.80
 -21  -9 -25   92.29   21.70
  -9  21 -25  104.99   45.30
 -21  11 -25  -30.40   35.20
  11  25  21   -1.10   11.60
  21 -25  11    1.70    6.50
 -11  21  25    5.50   10.50
 -11 -25  21    5.10    7.30
 -11  25 -21   29.60   32.90
 -11 -21 -25    2.70    9.90
  25 -11  21    6.20    8.30
 -25  21 -11    3.30   24.20
 -21 -11  25   -5.40   10.40
 -21  25  11    1.00   11.50
 -25 -11 -21   26.80   17.40
  11 -21  25   10.30    6.40
  21  11  25   -1.60   14.70
 -21  25 -11   -1.40   22.50
 -11 -21  25   -3.40    6.40
 -21 -25  11    3.40    9.00
  11 -25  21    7.80    6.00
 -11 -25 -21   10.80   11.80
 -25  11 -21   18.20   37.10
 -25 -11  21   16.00   17.70
 -11  25  21    1.20   11.00
  11  21  25   10.10   12.40
 -21 -11 -25    8.80   13.00
 -11  21 -25   -9.80   33.90
 -13  25 -21  123.89   41.60
  13  25  21   61.09   19.10
 -25  21 -13   54.09   31.70
  25 -13  21   56.69   14.30
 -21  13 -25   78.39   43.80
 -13  21  25   51.89   16.00
 -13 -21 -25   63.69   18.20
 -25 -13 -21   45.00   19.10
 -21 -13  25   33.60   13.80
 -13  21 -25   23.80   37.70
 -25 -13  21   30.70   17.80
 -25  13 -21   63.29   43.00
 -21  25 -13   12.00   25.90
 -13 -25 -21   21.70   14.60
 -13  25  21   61.89   16.80
  13  21  25   37.90   15.90
 -15 -21 -25    8.80   12.30
 -25 -15 -21   14.50   18.00
 -21  15 -25   36.10   41.10
 -15  21  25   17.60   12.80
  21 -25  15   26.90    9.50
 -15 -25  21   14.30    9.30
 -15  25 -21   17.00   33.40
 -25  21 -15   11.10   30.50
 -21 -15  25   16.60   10.60
 -21  25  15   23.20   15.20
  15 -21  25   31.00    9.10
 -15  21 -25   -4.30   36.30
 -15 -25 -21   28.40   15.50
 -21 -15 -25   21.30   14.90
  15 -25  21   16.10    6.90
 -25 -15  21    2.90   13.30
 -21  25 -15   48.00   31.60
 -21 -25  15   11.30    9.20
 -25  15 -21   29.40   40.60
 -15 -21  25    6.40    9.20
  15  21  25   29.10   16.10
 -15  25  21   35.80   14.30
 -17 -25  21  114.19   18.70
 -25 -21  17  127.29   22.80
 -17  25 -21   31.70   35.70
  25 -17  21  117.69   19.40
 -21  17 -25   55.09   44.30
 -25  21 -17  205.48   47.90
 -17  21  25   65.19   21.00
  17  21  25   99.79   26.00
 -17  25  21  106.99   24.50
 -17  21 -25  112.39   46.20
 -21 -17 -25   88.39   26.00
 -21  25 -17   95.69   38.50
 -25 -17  21  150.78   24.70
 -17 -25 -21   93.09   26.60
 -25  17 -21   87.59   45.90
  25 -23  -1  233.28   31.70
 -25 -23   1  227.48   37.40
  25  -1  23  278.47   45.80
  23   1  25  294.87   42.00
 -23  25  -1  253.57   42.40
  23  -1  25  250.77   40.60
  -1  25  23  223.08   34.10
   1  25 -23  239.48   65.49
  -1  23 -25  276.87   62.89
  -1 -25 -23  230.58   31.50
  25   1  23  172.38   42.60
  23   3  25   11.00   17.10
  -3  23  25   -3.10   10.50
  -3  25 -23  -21.20   28.80
 -25  23  -3   22.60   20.80
 -23  25   3    1.20   14.90
   3 -23  25    8.30    6.70
   3  25  23    9.20   12.20
  25 -23  -3    5.80    8.50
  -3 -23 -25   -0.40    8.50
  23 -25   3   13.50    9.60
 -25  -3  23   -5.40   24.00
 -25 -23  -3    0.70   14.20
  23  -3  25    5.40   16.80
  23 -25  -3    3.70    7.40
 -25  23   3    2.50   15.10
   3  23  25    7.60   12.40
  25 -23   3   10.00    9.30
 -23  25  -3    2.10   19.10
  -3  23 -25   17.10   34.00
  -3 -25 -23    3.10    9.10
  -3 -23  25   -3.60    5.80
   3 -25  23    6.90    6.50
  -3  25  23   -1.90   10.40
 -25  -5 -23    5.90   15.80
 -23  25   5   -1.90   12.20
 -25  23  -5  -20.10   20.70
  23   5  25   -7.10   14.90
   5  25  23    0.80   11.50
  25 -23  -5   -4.90    6.50
   5 -23  25   -3.50    5.30
  -5  25 -23  -19.60   28.80
  -5  23  25   -3.40    9.90
 -25 -23   5   -1.00   12.70
  23 -25   5   -2.10    7.10
  -5 -23 -25   -2.30    8.50
 -25  -5  23   14.50   21.50
 -23 -25   5    7.20   11.30
  -5 -23  25   -1.10    5.90
 -23  25  -5  -15.80   19.30
 -25  23   5  -17.70   12.30
 -23  -5 -25    5.40   13.60
   5  23  25    6.20   11.40
  23 -25  -5    1.60    7.70
 -25   5 -23    1.90   42.90
   5 -25  23   -0.40    5.30
  -5  23 -25   -5.60   32.80
  -5 -25 -23    0.20    8.30
  -5  25  23    0.40   10.50
  25 -23  -7  187.58   24.00
  23   7  25  159.98   36.20
  23 -25   7  151.78   23.30
  -7  23  25  140.29   27.00
 -25 -23   7  110.69   27.40
   7 -23  25  126.69   20.40
   7  25  23  144.39   27.40
  -7  25 -23   79.59   43.10
  -7 -23 -25  156.88   24.10
 -23  25  -7  132.99   41.80
  -7  25  23  170.88   27.30
  -7 -23  25  198.98   22.20
 -25   7 -23  130.79   53.59
   7 -25  23  179.48   21.30
  -7 -25 -23  178.68   25.70
  -7  23 -25  244.18   56.29
  -9  23  25  309.97   37.60
 -25 -23   9  301.27   39.20
 -25  -9 -23  222.68   40.70
 -23  25   9  282.07   40.70
  -9 -23 -25  222.58   34.40
   9  23  25  238.88   38.50
 -23  -9 -25  301.77   40.50
 -25   9 -23  375.16   78.39
 -23 -25   9  289.97   36.60
  11 -23  25    7.40    5.90
 -23 -11  25   16.40   14.40
  11  25  23   31.20   15.20
 -25 -11 -23   30.90   17.20
 -11  25 -23   37.80   34.70
 -23  25  11   12.30   14.30
 -11 -23 -25   27.30   12.00
 -11  23  25   26.50   12.90
  23 -25  11   17.00    9.50
 -25  23 -11   15.70   24.50
 -23  11 -25   35.80   45.60
  11  23  25   15.40   13.80
 -25 -11  23   12.90   16.20
 -11  25  23   43.90   14.60
  11 -25  23   31.40    8.90
 -23  25 -11   37.00   26.00
 -23 -11 -25   19.90   15.20
  25 -23  11   18.20    9.30
 -25  11 -23   23.80   40.60
 -11 -23  25   16.60    8.10
 -11  23 -25   38.50   35.70
 -13 -25  23    4.20    7.30
 -25 -13 -23   -6.10   15.40
 -23 -13  25    4.50   12.20
 -23  13 -25    4.50   39.30
 -23  25  13    1.00   13.70
 -13 -23 -25    0.10   10.90
 -25 -23  13   -6.40    9.60
 -13  23  25    4.20   11.60
  13 -23  25    1.30    5.50
  13  25  23    4.50   14.20
  23 -25  13   -5.50    6.90
 -13  25 -23    5.60   34.50
 -25  23 -13  -13.10   29.80
 -13  23 -25   10.20   36.00
 -23 -13 -25   -5.60   13.50
  13  23  25   -3.90   12.30
 -23  25 -13    0.80   24.90
 -25  13 -23   66.59   47.20
  25 -23  13   -0.40    7.50
  13 -25  23   -2.40    5.30
 -13  25  23    5.40   11.80
 -13 -25 -23   -4.30   11.40
 -23 -15  25   98.99   19.70
  23 -25  15   57.49   13.80
  15 -23  25   76.19   13.00
 -15  23  25   66.79   20.00
 -25 -23  15   75.19   18.00
 -25 -15 -23   34.50   32.20
 -15  25 -23   44.90   40.50
 -23  15 -25   53.19   45.20
 -25  23 -15   28.20   37.00
 -23 -15 -25   25.30   19.20
  15  23  25   38.20   18.40
 -15 -25 -23   21.60   24.50
 -25  15 -23  143.99   62.59
 -15  25  23   53.59   18.40
 -25 -25  -1  588.14   63.29
 -25 -25   1  502.35   61.79
 -25  25   1  398.06   62.49
  -1  25 -25  425.36   85.69
  -1  25  25  586.64   61.39
   1  25 -25  417.36  103.79
  25 -25   1  469.45   57.99
  25   1  25  630.64   69.29
 -25 -25  -3   96.39   26.50
 -25  25  -3  150.48   37.40
  -3  25 -25  119.89   49.80
  -3  25  25  144.69   26.40
   3  25  25  157.08   26.80
  25 -25   3  153.48   23.00
 -25   5 -25   93.29   53.19
  -5 -25 -25   62.99   17.60
  -5 -25  25   77.19   14.50
  -5  25 -25  169.48   48.10
  25 -25  -5   98.79   17.30
 -25   7 -25  376.06   99.69
  -7  25  25  590.84   65.19
   7  25  25  594.84   66.09
  25 -25  -7  531.35   61.59
 -25   9 -25  685.63  115.09
  -9 -25 -25  604.54   75.69
  -9  25 -25  835.62  104.79
  -9  25  25  705.03   78.39
   9 -25  25  803.02   74.49
   9  25  25  594.94   79.29
  25 -25   9  697.33   76.29
 -25 -11  25  202.18   30.80
 -25  11 -25  119.89   55.69
 -11  25 -25  244.38   60.19
 -11  25  25  160.38   27.60
  11 -25  25  116.89   19.50
  11  25  25  141.49   30.70
  25 -25  11  163.68   23.30
   0 -26   0 3762.62  330.87
   0   0  26 2774.02  332.47
   0  -2  26  629.74   73.99
   0   2  26  698.53   73.89
   2  26   0  601.74   75.09
   0  26  -2  666.43   77.89
   0  26   2  766.62   76.49
   2   0  26  641.84   73.49
   0 -26  -2  754.82   70.79
 -26  -2   0  473.15   94.59
  -2   0  26  608.14   73.59
   2 -26   2  109.19   17.70
   2  -2  26  136.39   24.40
  -2   2  26  127.29   22.90
  -2  26  -2  136.19   29.70
 -26   2   2   61.29   42.60
  -2 -26  -2  148.69   18.00
  -2  -2  26  116.59   23.80
 -26  -2  -2   67.99   42.50
   2  26  -2  189.28   30.00
   2  26   2  172.18   26.20
   2   2  26  121.79   23.10
   0   4  26  212.48   29.40
   0  -4  26  198.68   28.70
 -26   0   4  131.49   51.69
 -26  -4   0  154.48   50.89
  -4   0  26  181.58   29.30
   0 -26  -4  174.08   23.20
   4   0  26  191.28   29.20
 -26  -4   2    5.30   32.40
   4 -26   2   -1.60    5.00
  -2   4  26    4.60   10.40
  -2  26  -4    1.70   15.90
   4  26  -2   -3.70   12.00
   2 -26  -4    0.10    4.60
  -4  -2  26    1.30   11.00
   2  26   4   -3.60    9.00
  26  -2   4    1.20    4.20
   4   2  26   -2.00   10.40
   2  -4  26   -2.60   10.00
  -4  26   2    7.00   13.60
 -26  -2  -4  -11.50   32.10
  -4   2  26    0.30    9.50
  -2  -4  26   -1.60   10.00
  -2 -26  -4   -1.20    4.50
  -2  26   4   -0.20   12.00
   2   4  26    3.70   10.00
  26  -4   2    0.40    4.90
   4  26   2    0.30    9.50
  -4  26  -2    4.00   15.70
   4  -2  26   -1.00    8.70
  -4 -26   2   -0.10    4.60
 -26  -2   4   -9.70   31.00
   2  26  -4   -4.50   13.80
   4 -26  -2   -1.70    4.60
  -4  -4  26  121.09   22.90
  -4   4  26  113.99   22.00
  -4  26  -4  171.28   32.00
   4  26  -4  140.99   27.70
  -4  26   4  117.99   24.00
   4 -26  -4  110.09   16.00
   4   4  26  107.89   21.50
   4  -4  26   97.89   21.80
 -26   4   4   49.40   41.60
  -4 -26  -4  111.19   15.40
   4 -26   4   86.69   15.30
 -26  -4   4   40.20   37.90
   0   6  26  753.22   78.49
   6   0  26  700.53   78.49
   0  -6  26  718.73   79.49
   0 -26  -6  604.64   74.59
  -6   0  26  771.72   80.09
  -2   6  26  111.39   21.60
  26  -2   6   98.49   16.40
  -2  26  -6  153.88   31.40
   6   2  26  109.69   21.60
   2 -26  -6   96.59   16.00
   2  -6  26  124.79   23.50
  -6  -2  26  113.49   24.00
 -26  -6   2   66.99   39.00
 -26  -2  -6   79.09   43.10
  26  -6  -2  125.09   17.80
  -6  -2 -26  107.39   19.60
 -26  -6  -2   70.39   38.80
   2   6  26  130.49   23.00
   2  26  -6  146.39   30.20
   6  26   2   84.19   20.80
   6 -26  -2  132.69   17.00
  -6   2  26  112.29   23.40
   2 -26   6  118.69   16.50
  -2  -6  26  112.89   23.20
   6  -2  26  136.69   23.60
  26  -6  -4   -0.60    3.70
  -4  -6 -26    1.10    7.80
  26  -4   6    0.60    4.90
   4  -6  26    9.10   11.30
 -26  -6   4    8.50   30.20
   6   4  26    3.50    9.90
   6  26  -4   -0.60   13.70
  -6 -26  -4   -0.10    4.30
  -4  26  -6   -4.30   15.70
  -4 -26   6    3.30    5.10
   4 -26  -6    5.90    5.80
   6 -26   4    1.40    5.50
   4  26   6    5.60   10.70
  -6  26   4   -6.80   11.90
 -26   4   6  -17.60   30.50
  -4   6  26    7.40    9.60
  -6  -4  26    4.20   11.60
  -6   4  26   -3.00    9.60
  26  -6   4    2.20    5.60
  -4 -26  -6    3.70    5.30
   6  26   4   -4.00    9.40
  -4  26   6   -4.80   10.10
  -6 -26   4    1.30    5.30
  -6  -4 -26    1.90    8.00
   4   6  26   -0.10    9.90
  -4 -26  -6   -0.40   12.50
   6  -4  26   -3.30    9.20
  -4  -6  26   -7.10   10.70
   6 -26  -4   -1.00    4.90
   4  26  -6   -5.20   13.90
  -6  26  -4    1.50   16.80
 -26  -6  -4    1.30   29.80
 -26   6   6   42.70   37.50
  -6  -6  26   56.69   18.50
   6  -6  26   51.39   16.20
   6   6  26   57.89   16.20
   6  26   6   37.90   14.40
  26  -6   6   56.59   12.10
  -6 -26  -6   49.20   10.50
  -6 -26  -6   53.69   17.60
  -6  -6 -26   31.20   11.60
   6  26  -6   67.09   21.40
  -6   6  26   78.39   18.70
  -6  26   6   72.89   18.10
  -8 -26   0 2062.79  196.68
   0  -8  26 1667.93  198.98
   0  26  -8 1775.22  202.78
   8   0  26 1737.73  198.28
  -8   0  26 1903.11  199.68
   0   8  26 1826.32  197.98
 -26  -8   0 2270.17  221.48
   8  26   0 2187.18  199.38
 -26   2   8  638.94  103.59
  -8  26   2  694.43   84.79
   8   2  26  691.53   81.19
   2  26   8  708.63   81.59
   2  -8  26  761.12   83.49
  -8  -2  26  768.02   83.89
   2  26  -8  774.22   87.89
   8  -2  26  772.52   82.29
  -8  26  -2  744.63   87.29
  -2  26   8  825.22   82.59
  -8   2  26  758.82   82.19
  -2  -8  26  683.03   82.99
   4  -8  26  198.18   32.80
  -8  -4  26  238.08   34.60
   8   4  26  228.98   32.70
   4  26   8  203.08   30.90
  -4   8  26  238.38   32.30
 -26  -4  -8  179.48   56.09
   8  26  -4  210.78   35.20
  -8  -4 -26  224.68   29.80
  -8   4  26  247.98   33.40
  -4  -8  26  276.07   37.10
   8  -4  26  211.98   32.60
 -26  -4   8  166.98   52.79
   4   8  26  244.38   32.50
  -4 -26  -8  192.58   34.60
   8 -26  -4  266.17   27.90
  -4  26   8  182.58   31.50
  -8  26  -4  201.18   39.10
 -26   6   8  496.65   90.99
  -6  26  -8  565.04   72.29
  -8  26   6  499.25   65.89
  -8  -6  26  657.53   69.39
   6  -8  26  621.64   67.99
  -6   8  26  645.64   65.89
  -6  -8  26  617.84   69.69
 -26  -6   8  577.54   85.89
  -8  -6 -26  517.05   62.99
  -8  26  -6  559.14   72.59
  -6  26   8  575.64   65.79
   6  26  -8  704.73   73.59
   8  26   6  500.05   64.39
  26  -8   6  523.95   62.39
   6   8  26  570.84   65.99
   8 -26  -8 1325.97  134.29
  -8   8  26 1113.29  134.59
  -8  26   8 1356.66  135.69
  -8 -26   8 1328.37  133.09
   0 -26  10  843.02  101.19
 -10   0  26  976.90  108.09
 -10  26   0  885.21  110.09
  10   0  26 1043.10  106.79
  26 -10   0 1039.00  103.49
   0 -10  26 1072.29  108.49
   0  10  26 1087.29  106.09
  10 -26   0  912.01  102.39
   0  26 -10  846.92  110.29
   0  26  10 1125.49  106.69
   2  26  10  156.48   27.70
 -10  -2  26  207.98   49.80
 -10   2 -26  158.18   26.90
  -2  10  26  223.88   29.30
  -2  26 -10  193.18   37.40
  10   2  26  173.88   29.80
  26  -2  10  221.38   25.00
 -26  -2 -10  150.88   52.59
 -26 -10   2  163.48   46.10
 -10  26   2  232.58   35.60
   2 -10  26  180.78   24.80
   2 -10  26  206.58   31.70
   2  10  26  209.28   29.20
  -2  26  10  233.58   30.90
  -2 -10  26  216.98   32.50
   2  26 -10  141.09   35.50
 -10   2  26  232.58   31.70
  10  -2  26  183.38   29.50
  -2 -10  26  154.08   24.30
  26 -10  -4   28.90    9.00
  -4  10  26    8.50   10.20
   4 -10  26   19.40   12.90
  10   4  26   21.50   12.40
  -4 -10 -26    6.30    8.40
 -26 -10   4   24.70   28.80
  26  -4  10   18.80    7.90
 -26  -4 -10   29.50   35.60
 -10  26   4   18.30   14.90
   4  26  10   21.80   12.20
 -10 -26  -4   20.90    8.80
  -4  26 -10   11.10   18.80
  -4 -26 -10   10.20   13.30
 -10  26  -4    9.60   18.60
   4  26 -10   28.70   20.10
  10 -26  -4   21.60    7.60
 -10  -4 -26   13.40    9.90
 -26  -4  10    3.20   27.90
  -4 -10  26   14.70   13.90
  -4 -10  26   24.40    7.90
 -26 -10  -4   12.40   28.90
  10  26   4   17.40   12.30
   4  10  26   22.70   12.20
  10  -4  26    9.10   11.80
 -10 -26   4   31.10    9.50
 -10   4  26   11.90   13.20
  -4  26  10   27.20   13.90
  -6  10  26  161.78   27.90
  26 -10  -6  202.28   24.90
  10   6  26  159.38   29.00
   6  26  10  144.29   27.50
   6 -10  26  173.18   30.70
  -6 -26  10  224.28   24.80
  10 -26   6  186.28   24.00
  -6  26 -10  127.39   36.40
 -10  -6 -26  218.28   28.20
  -6  26  10  144.09   28.50
   6  26 -10  178.18   41.70
  -6 -10  26  230.48   36.20
  10  26   6  135.69   28.00
 -26 -10  -6  251.67   54.69
  10  -6  26  182.88   30.70
  26 -10   6  218.38   26.40
  -6 -10  26  221.48   25.10
   6  10  26  171.78   28.40
 -10 -26   6  217.08   25.70
 -26  -8 -10  598.94   97.79
   8 -10  26  710.33   79.19
  -8  26 -10  837.92   88.09
  26  -8  10  618.74   74.49
  -8  10  26  748.13   77.49
  10   8  26  633.84   76.59
  -8 -10 -26  650.53   74.79
  10  26   8  658.53   75.79
 -10   8  26  799.32   78.99
  10  -8  26  650.23   78.29
   8  10  26  711.03   77.79
 -10 -10 -26  239.88   30.90
 -10 -10  26  227.18   30.90
  10  10  26  230.38   34.00
 -10  10  26  223.38   33.10
  10 -10  26  240.18   35.80
   0  12  26  258.37   32.10
  12   0  26  227.88   31.90
   0  26  12  214.28   31.50
 -12 -26   0  224.88   28.10
 -12   0 -26  199.18   29.50
   0  26 -12  212.88   39.80
  12 -26   0  214.38   26.70
   0 -12  26  159.68   32.50
  -2 -12 -26    8.20    6.90
  12 -26   2    4.50    6.20
  -2 -26  12    5.30    5.30
  12   2  26   -2.50   10.60
 -26   2  12   -2.30   28.60
  26  -2  12    0.80    5.10
 -12 -26  -2    1.00    6.50
   2 -26 -12    0.30    9.60
   2 -12  26    3.00    7.50
 -26  -2 -12  -26.70   30.70
   2  26  12   -2.30   10.40
  -2  12  26    0.90   10.00
 -12  26   2   -0.20   15.10
  26 -12  -2    5.30    7.20
  -2  26 -12    8.80   19.80
   2 -12  26   -9.00   11.30
  12 -26  -2   -0.10    5.10
  -2 -12  26   -1.90    5.10
 -12  -2 -26    2.90    9.30
  -2 -26 -12   -1.50    9.90
  -2 -12  26   -1.00   12.80
  12  -2  26    0.20   11.00
   2  26 -12   -1.40   17.20
   2  12  26    3.10   10.30
   2 -26  12    2.40    5.30
  -2  26  12   -3.30    9.90
 -12  26  -2  -10.40   16.30
  26 -12   2   11.00    8.30
 -12  26   4  244.68   35.20
  12   4  26  246.88   32.70
 -26   4  12  209.68   55.49
   4  26  12  187.68   30.00
  26  -4  12  182.78   25.70
 -26  -4 -12  147.59   52.39
  12 -26   4  213.78   26.20
   4 -12  26  236.38   33.90
  -4 -12  26  171.38   34.40
 -12   4  26  263.17   35.50
  12  -4  26  189.28   32.10
 -12  -4 -26  183.18   28.70
   4  26 -12  221.78   40.80
  12 -26   6   10.20    7.20
  26  -6  12    8.80    6.70
  -6 -12 -26    4.10    8.40
   6  26  12    7.90   10.70
   6 -12  26   12.40    7.10
  -6  26 -12   11.30   20.80
  12   6  26   10.90   12.20
 -12 -26  -6   13.30   12.40
   6 -12  26    5.10   13.20
  -6  12  26    4.20   10.20
 -12  26   6    7.10   12.20
 -26  -6 -12   32.10   34.10
   6  12  26   11.70   11.90
  12  26   6   14.50   12.50
  -6 -26 -12    6.90   12.10
  -6 -12  26   14.50    7.40
 -26 -12  -6   -2.00   26.60
 -12  -6 -26    7.70    9.50
 -12   6  26   15.50   14.70
 -26  -6  12   -6.90   24.00
  -6 -12  26   13.30   18.20
  -6  26  12   12.60   12.00
   6 -26  12    5.80    6.10
 -12  26  -6    1.00   17.80
  26 -12   6   21.20   10.20
  12 -26  -6    4.70    7.10
   6  26 -12  -13.40   21.80
  12  -6  26   18.90   13.60
  -8  12  26   86.29   19.00
 -26  -8 -12   18.50   31.70
 -12  26   8   83.19   19.70
 -26   8  12   79.69   45.40
   8 -12  26   63.89   13.10
  12 -26   8   70.09   13.00
  12   8  26   89.69   20.80
   8  26  12   95.99   19.60
   8 -12  26   43.60   17.90
  -8 -12 -26   60.29   15.60
  -8  26 -12   56.99   26.60
  -8 -26 -12   76.69   22.60
   8  12  26   81.39   19.90
 -12  -8 -26   41.40   14.00
 -12  26  -8   46.80   25.00
 -12   8  26   77.29   20.30
 -26 -12  -8   33.20   32.00
  12 -26  -8   59.99   14.20
  12  26   8   64.39   19.20
  12  -8  26   73.39   22.30
  -8 -12  26  100.59   15.90
  10  26  12    2.80   10.90
 -26  12 -10   18.90   30.20
 -12 -10  26   -2.50    8.50
 -12  26  10   -5.70    9.90
 -26 -10 -12  -17.60   30.00
 -10  26 -12    2.80   20.20
  10 -12  26   -1.10   13.40
 -10 -12 -26    1.70    8.90
  12  10  26   -0.30   10.00
 -10  12  26    4.20   10.50
 -26  10  12    9.30   34.70
 -26 -12  10   -1.40   22.30
  10 -12  26   -0.80    6.40
 -10 -26 -12   -7.70   13.10
  10 -26  12   -2.30    5.10
 -10 -12  26    6.30    8.30
 -12 -10 -26   -2.10    8.70
 -12 -26  10    2.00    7.00
 -26  10 -12    2.60   30.50
  12 -10  26    1.70   12.00
 -10  26  12   -2.00   11.10
 -26 -12 -10   -1.90   29.00
  10  12  26    0.90   11.40
 -12  26 -10   -1.60   20.10
 -12  10  26    2.40   11.30
  12  26  10    2.40   11.90
 -12 -26  12  103.99   18.30
 -12 -26 -12   62.69   22.40
 -12 -12  26   86.89   17.80
 -26  12  12  118.19   51.39
 -26 -12  12  175.38   64.69
 -12  12  26  125.69   23.70
  26 -14   0  445.46   47.30
 -14 -26   0  375.76   47.00
  14   0  26  346.57   49.40
   0  14  26  422.56   49.50
 -14   0 -26  429.16   48.70
  -2  14  26   48.20   14.20
 -26  -2 -14    9.80   36.20
   2  26  14   42.40   14.50
 -14 -26  -2   22.50   10.00
  14 -26   2   31.10   10.40
  26  -2  14   42.00   10.60
 -26 -14   2   32.20   27.00
   2 -26 -14   66.49   16.50
  14   2  26   56.89   15.90
 -14  26   2   36.10   18.20
 -26   2  14   59.79   37.10
  26 -14  -2   44.80   12.20
  -2 -14 -26   42.40   12.10
  -2  26 -14   46.80   25.00
 -14  26  -2   64.89   23.80
 -14  -2 -26   35.20   12.90
   2  14  26   44.20   15.00
  14  -2  26   39.50   15.60
  26 -14   2   53.99   13.70
  14 -26  -2   36.00   10.60
 -26  -2  14   40.10   31.80
   2  26 -14   74.09   27.40
  -2  26  14   45.30   15.40
 -26   4  14    2.50   30.20
   4 -14  26   24.80    8.60
 -26  -4 -14   -1.90   32.80
 -14 -26  -4   19.50   10.00
  26  -4  14    8.00    6.70
   4  26  14   12.30   11.40
  -4  26 -14   22.10   24.20
  14   4  26    9.40   12.60
  26 -14  -4   12.70    8.00
 -14  26   4   18.10   14.80
  -4 -26  14   18.40    7.20
  -4  14  26   15.10   10.90
  -4 -14 -26   24.20   10.10
  -4 -14  26   16.60    7.40
 -26 -14  -4    1.90   24.90
   4  26 -14   12.90   21.60
  14  -4  26   20.40   13.60
  -4 -26 -14    6.80   11.30
 -14 -26   4   27.50   10.40
  14 -26  -4    3.90    6.60
 -26  -4  14   -6.60   25.90
 -14  26  -4   -7.90   18.50
  26 -14   4   12.10    8.70
 -14  -4 -26   12.20   10.00
   4  14  26   19.60   11.90
  -4  26  14    9.40   11.60
 -14  26   6   44.40   16.50
 -26  -6 -14   39.90   38.80
 -26   6  14   67.49   39.70
   6  26  14   44.10   14.80
   6 -14  26   59.29   11.50
  26 -14  -6   32.40   10.30
  -6  26 -14   11.70   23.30
  -6 -14 -26   37.40   12.20
  14   6  26   65.99   17.70
  -6  14  26   55.89   14.70
 -26 -14   6   -5.00   23.10
  -6  26  14   60.29   16.20
   6  14  26   68.39   19.40
  26 -14   6   39.10   12.70
  14  -6  26   43.40   16.80
 -26 -14  -6   34.40   28.70
 -14  26  -6    1.90   19.80
  -6 -26 -14   35.00   15.00
  -8  14  26  292.87   42.70
 -14  26   8  403.26   45.20
  -8  26 -14  275.97   55.89
   8  26  14  299.37   43.40
 -26  14  -8  465.85   66.59
  14   8  26  319.87   45.20
  -8  26  14  356.86   44.70
  14  -8  26  346.67   46.80
  -8 -26 -14  412.06   48.10
   8 -26  14  401.16   40.30
 -10 -26  14   76.19   14.50
 -26  14 -10  124.99   37.30
 -14 -10  26   94.29   18.50
 -10  14  26   57.49   17.90
  14  10  26   51.09   17.30
 -26  10  14   73.49   45.20
  10  26  14   65.19   18.50
 -14  10  26   60.89   18.40
 -10 -26 -14   54.39   19.80
 -10  26  14   66.49   19.00
  10 -26  14   57.89   11.70
 -14  26 -10   26.60   25.60
 -10 -14  26   59.39   14.40
  14 -10  26   41.90   18.60
 -26  10 -14   66.59   39.80
  12 -14  26   38.10   10.90
  12  26  14   42.00   15.20
 -12 -26  14   30.10    9.90
 -12  26 -14   11.40   26.40
 -26 -14  12   28.20   23.00
 -26  12  14   26.10   40.40
 -14  26  12   33.80   14.20
 -26  14 -12   41.20   34.00
 -14 -12  26   32.70   12.10
  14  12  26   43.10   14.70
 -12 -14 -26   32.70   12.60
 -12 -14  26   23.60   10.70
 -14  12  26   29.80   15.10
  12  14  26   51.09   16.20
 -26  12 -14   39.90   35.30
 -12  14 -26   50.49   40.30
 -26 -12  14    5.00   21.80
 -26  14  12   27.70   42.10
 -12  26  14   56.69   15.50
 -12 -26 -14   18.20   15.70
 -14  26 -14    3.40   24.20
 -14  14  26   17.70   14.00
 -14 -14 -26    3.50   10.60
 -26  14  14   -2.00   52.59
 -26  14 -14   -0.80   30.20
 -14  26  14    9.30   11.10
  14 -26  14    6.30    6.20
  26 -14  14    7.80    8.00
 -14 -26 -14    7.90   15.50
 -14 -26  14    4.30    7.70
 -14  14 -26   11.40   37.10
  14  14  26    5.50   11.60
 -16   0 -26  855.81  101.29
   0 -26 -16 1065.99  101.39
  16 -26   0 1022.70  100.29
  16   0  26  880.11  102.89
   0 -16  26  901.61   99.09
   2 -16  26  719.43   66.99
 -16  26   2  521.95   72.39
  -2  16  26  549.95   68.29
   2  16  26  675.93   70.39
  -2  26  16  636.54   69.59
  -2 -26 -16  634.94   68.79
  16  -2  26  522.25   70.29
 -26  16  -4  142.69   39.00
  16   4  26  161.28   27.10
   4  16 -26  129.79   51.79
  16 -26   4  140.69   20.80
   4  26  16  137.39   25.80
  -4  16  26  147.09   24.90
 -16  26   4  109.39   28.20
  26  -4  16  173.38   21.80
  -4  26 -16  201.68   43.20
 -26   4  16  157.88   51.49
  -4 -16 -26  142.29   22.60
  -4 -26 -16  147.49   25.70
  16  -4  26  189.68   30.00
 -16  26  -4  205.68   38.70
  16 -26  -4  131.99   21.80
 -16  -4 -26  125.99   24.70
  -4  16 -26  224.08   59.99
   4  16  26  191.78   27.60
   6  26  16  406.36   48.50
  26 -16  -6  394.46   45.00
  16   6  26  383.76   50.19
  26  -6  16  364.06   44.90
  -6  16  26  425.76   48.20
 -26   6  16  314.57   70.09
  -6 -26  16  399.26   44.00
  -6  16 -26  445.06   79.39
 -16 -26   6  345.37   46.10
  -6 -26 -16  394.16   48.40
  -6 -16  26  427.96   44.60
  -8  16  26  876.41  102.99
  16 -26   8 1008.90  100.79
  16 -26  -8  911.81  102.19
  -8  16 -26 1117.29  130.89
  16  10  26  659.03   72.09
 -16  26  10  665.03   70.89
 -26  16 -10  511.85  113.39
  16 -26  10  548.05   66.39
 -10  16  26  553.44   69.09
  10  26  16  581.74   80.69
 -10 -16 -26  737.63   69.39
  26 -16  10  593.94   68.19
  10  16  26  560.14   69.99
 -16  26 -10  689.93   82.49
  16 -10  26  692.23   74.29
 -10  16 -26  543.55   95.49
 -12  26 -16   93.89   34.30
 -12  16  26   76.69   18.50
  16  12  26   82.79   22.40
 -26  16 -12   37.40   34.50
  16 -26  12   54.89   12.00
  12 -16  26   36.50   11.60
 -16  12 -26   19.90   38.90
  12  26  16  107.49   22.50
  12 -26  16   80.89   12.40
  26 -16  12   56.09   14.60
 -12 -26 -16   59.29   19.80
 -26  16  12   50.79   44.60
 -12  26  16   39.90   14.90
 -16 -12 -26   74.19   19.40
 -26  12 -16  114.59   45.00
 -12  16 -26  151.78   48.80
 -16  26 -12   42.90   27.70
  12  16  26   69.89   18.30
 -14 -16 -26  214.88   31.50
 -14  26 -16  293.87   54.29
  16  14  26  195.18   32.90
  14 -16  26  201.18   27.00
 -26  16 -14  245.28   57.19
 -14 -16  26  199.68   28.80
 -14  26  16  256.67   32.80
 -16 -14 -26  217.68   31.90
 -14  16 -26  165.78   53.39
 -16 -26  14  196.78   28.00
 -16  26 -14  173.68   48.80
 -16 -26  16  962.40   92.29
 -16  26 -16  911.31  109.99
 -16  16  26  782.92   95.09
  26 -16  16  825.52   92.09
 -16 -26 -16  883.01   97.79
 -26  16 -16  758.42  112.69
   0 -26 -18  454.75   54.49
  18   0  26  451.25   59.79
 -18 -26   0  513.45   56.29
   0 -26  18  496.65   52.39
  18 -26   0  470.55   62.69
  -2  18  26  280.57   33.70
 -26  18  -2  277.77   47.50
   2 -18  26  250.37   28.70
  18 -26  -2  199.38   31.00
  26 -18   2  192.88   29.70
  -2  26  18  250.47   34.00
  18  -2  26  260.37   36.20
  -2 -18  26  251.27   28.50
   2  18  26  186.88   32.60
 -18  26  -2  137.99   40.20
  26  -4  18   22.00    8.40
  26 -18  -4   34.80   10.60
 -26   4  18   19.60   29.70
   4  26  18   36.80   13.80
  -4 -26  18   10.00    6.60
  18   4  26    9.80   13.00
  -4  26 -18    2.60   25.60
  -4  18  26   21.20   11.80
 -26  18  -4   17.60   22.50
   4  18 -26   53.29   43.10
   4 -18  26   16.10    7.40
 -18  26   4   11.50   15.00
 -18 -26  -4   24.90   12.50
  -4  18 -26    6.60   35.20
   4  26 -18   12.00   27.40
  -4 -18  26   15.50    7.20
 -18  -4 -26   17.80   12.40
  18 -26  -4   15.00    9.10
 -18 -26   4    9.10    9.60
   4  18  26   17.80   11.90
 -26  -4  18    4.80   26.70
  -4  26  18   16.70   12.10
  18  -4  26   15.80   14.60
 -18  26  -4   -3.30   19.70
 -26 -18  -4    4.10   21.40
   6 -18  26  118.29   18.70
 -26   6  18  192.88   53.99
  -6  26 -18  174.78   44.90
  -6 -26  18   94.59   15.70
 -26  18  -6   87.79   30.80
  -6  18  26  129.09   22.30
  26  -6  18  103.29   17.70
  18   6  26  170.18   26.20
 -26   6 -18  161.38   54.59
 -18  26  -6   71.49   28.00
  18  -6  26  122.59   25.90
  -6  18 -26   41.20   39.20
 -18 -26   6   90.59   18.60
  -8 -26  18  816.62   74.79
 -26  18  -8  794.52   92.59
  18   8  26  642.94   79.19
  26  -8  18  594.44   74.79
 -26 -18   8  670.93   85.19
  18 -26   8  816.82   75.39
  -8  18  26  585.14   76.29
 -18  26   8  596.14   76.99
  18  -8  26  674.93   80.69
 -26   8 -18  860.51  110.29
  -8  26  18  711.63   77.59
 -10 -18 -26  262.17   36.50
  10 -18  26  246.68   33.40
 -10  18  26  359.76   39.70
  18  10  26  330.17   41.60
  10  26  18  256.27   37.80
 -18  26  10  303.47   39.40
 -18 -10  26  264.17   38.20
 -10  18 -26  279.87   68.99
 -10  26  18  293.27   38.10
 -18  26 -10  299.67   54.09
  10  18  26  319.87   40.00
 -26  10 -18  374.56   74.99
 -18  12 -26  -18.90   37.00
  12  26  18   32.10   14.70
  18  12  26   29.00   15.70
 -12  18  26   15.20   11.40
  12 -18  26   19.70    8.30
 -18  26  12   16.60   12.40
 -26  18 -12   28.90   31.50
 -18 -12  26    2.70   10.40
 -12 -18 -26   12.20   10.20
 -12  26 -18   25.30   30.00
 -26  18  12  -17.00   41.30
  12  18  26   22.80   13.60
 -18 -26  12   16.80    9.30
 -18  26 -12   13.90   24.90
 -12  26  18   29.70   13.30
 -12 -26 -18   29.50   15.60
 -26  12 -18  -36.00   35.00
 -12 -18  26    0.70    7.70
 -26 -12  18   18.70   20.10
 -12  18 -26   14.20   37.80
 -18 -12 -26   15.30   12.90
 -14  18  26  127.39   24.80
 -18  14 -26   83.49   45.40
  14 -18  26   83.19   16.10
  18  14  26   77.89   24.90
  26 -14  18  115.89   19.40
 -14 -26  18   96.39   17.80
 -18  26  14  130.79   23.40
 -18 -14 -26   92.29   24.40
 -14  18 -26   82.29   45.50
 -18  26 -14  203.08   46.30
 -26  14 -18  144.29   47.30
  26 -18  14  107.49   18.80
 -18 -26  14  124.09   19.20
  14 -26  18  135.29   16.50
 -14 -26 -18   65.29   21.80
  14  18  26  101.99   26.00
 -16  26 -18  288.17   58.69
 -18 -16  26  326.97   36.70
 -16 -18 -26  264.57   37.50
 -18  26  16  218.58   36.90
  26 -16  18  323.07   35.50
 -18 -16 -26  249.58   37.90
 -26  16 -18  378.86   74.29
  16  18  26  324.97   40.10
 -16  18 -26  447.66   79.49
  16 -26  18  226.28   31.90
 -18  26 -16  188.68   56.29
 -18  26 -18  187.58   54.49
 -18  26  18  258.57   35.40
  18  18  26  194.18   37.90
 -26  18 -18  221.28   64.89
 -26   0  20  167.28   46.70
   0  20  26  156.88   27.80
  20   0  26  193.88   33.70
  26 -20   0  163.78   25.90
   0 -20  26  182.98   23.50
   0  20 -26  213.08   64.29
   0  26 -20  159.68   44.60
 -20  26   0  237.48   37.80
   2 -20  26    3.20    6.40
 -26  20  -2   -6.10   19.20
  -2  20  26    2.80   10.40
 -20 -26  -2    6.30    9.80
   2  20 -26  -17.00   34.20
  -2 -26  20    1.60    5.50
 -26 -20   2    0.50   18.20
  20   2  26   -8.10   13.00
 -26   2  20    4.90   30.80
   2  26  20   -1.50   10.60
  -2 -20 -26    2.30    8.20
  -2  26 -20    1.70   26.60
 -20  26   2   -3.50   16.00
 -20  26  -2   -1.90   17.90
  -2 -20  26    3.30    6.50
  -2 -26 -20   -1.70    9.10
 -20  -2 -26    6.40   13.20
  -2  26  20   -7.80   10.60
   2  20  26    2.60   11.00
  20 -26  -2   -0.20    7.50
 -26 -20  -2   -4.90   17.10
  20  -2  26   -6.80   12.90
 -20 -26   2    4.00    9.30
   2 -26  20    1.30    5.50
  -2  20 -26    0.70   34.10
   2  26 -20  -16.90   28.10
 -26   4  20    3.50   36.70
  20   4  26   48.80   18.40
  -4  26 -20   86.59   36.10
 -26  20  -4   10.30   24.80
   4  26  20   17.10   12.80
 -20 -26  -4   73.89   21.70
 -20  26   4   89.59   24.90
  -4 -20 -26   32.10   11.20
  -4  20  26   60.79   16.30
 -26 -20   4    2.30   18.40
  26 -20  -4   60.19   13.30
  -4  20 -26   65.29   42.10
   4 -26  20   41.50   10.50
  -4 -26 -20   65.59   16.80
 -26  -4  20   30.60   27.60
  20 -26  -4   56.29   13.90
  26 -20   4   38.20   12.80
 -26 -20  -4   47.40   22.60
   4  20  26   55.69   16.20
 -20  26  -4   39.00   23.20
  -4  26  20   75.59   20.10
 -20  -4 -26   37.80   15.00
  20  -4  26   34.30   16.60
  -6  26 -20   -7.40   27.30
 -26 -20   6   -3.00   16.40
 -20  26   6    5.70   11.30
  -6 -20 -26   24.10   10.30
 -26  20  -6   10.60   25.20
  26  -6  20    8.00    9.20
   6  26  20   10.70   11.70
   6 -20  26    7.00    6.10
  -6  20  26    4.10   10.30
  -6 -26  20    6.00    6.10
  20   6  26    5.10   13.30
  26 -20  -6   10.10    7.30
   6 -26  20   12.20    6.70
  -6  26  20    3.50   11.40
   6  20  26    9.10   13.00
  20  -6  26   14.50   14.40
 -26   6 -20   39.00   48.80
 -20  -6 -26   10.60   12.90
  -6 -26 -20   12.10   10.70
 -20  26  -6   12.70   22.10
 -26 -20  -6   15.30   21.70
  20 -26  -6    4.40    7.60
 -26  -6  20   -6.40   21.10
  -6  20 -26   26.60   36.90
  26  -8  20  162.58   21.20
 -26 -20   8  116.29   28.80
  -8  26 -20   46.90   33.70
  -8  20  26  124.99   23.60
   8 -26  20  135.39   17.50
  -8 -26 -20   94.09   22.30
 -20  26  -8   82.29   31.00
 -26   8 -20  196.98   60.79
  -8  20 -26   78.99   42.90
 -10  26 -20   55.99   32.40
  20 -26  10   36.10   10.70
  10  26  20   39.50   15.40
 -20 -10  26    7.10   12.20
  20  10  26   18.20   14.80
 -20  10 -26    9.20   37.70
 -20  26  10   26.80   15.10
 -10 -20 -26   29.10   11.70
  26 -10  20   17.60    9.10
  26 -20 -10   22.50    9.40
 -10  20  26    8.60   11.60
  10 -20  26   11.80    7.00
 -26  20 -10   17.50   24.60
 -20 -26  10   29.50   11.30
 -10  20 -26  -21.20   29.70
  10 -26  20   31.40    8.40
  26 -20  10   20.00    9.90
 -20  26 -10   -4.70   21.40
 -10  26  20   15.20   12.70
 -20 -10 -26   13.70   13.00
 -26  10 -20   39.20   43.20
  10  20  26   16.40   13.30
 -10 -26 -20    3.20   11.00
 -26  20 -12   50.49   32.00
  12  26  20   48.60   16.20
 -20 -12  26   37.70   14.20
 -20  26  12   12.30   13.00
  20 -26  12   28.90    9.80
  20  12  26   44.80   17.10
 -12  26 -20  110.29   38.10
 -12  20  26   30.50   13.20
 -20  12 -26   79.19   43.10
 -20 -26  12   57.09   14.30
  12 -26  20   30.30    9.20
  12  20  26   42.90   15.20
 -20  26 -12   43.60   27.40
 -12 -26 -20   81.39   21.70
 -20 -12 -26   64.29   17.70
 -12  26  20   36.30   14.40
 -12 -20  26   48.90   13.00
 -12  20 -26   32.90   35.70
 -26  12 -20   51.99   43.10
 -26  20 -14    7.00   29.90
 -20 -14  26    5.90   10.90
 -20  14 -26   -6.60   38.80
 -14  26 -20   18.80   31.20
 -20  26  14    0.20   12.00
  14 -20  26   -4.70    5.60
  26 -14  20    4.50    8.50
  20 -26  14    1.30    6.10
 -14 -20 -26   -3.40   10.00
 -14 -26  20   -4.50    7.20
 -14  20  26    3.90   12.30
 -14 -26 -20    4.70   13.10
 -20 -14 -26   -1.40   12.00
 -26  14 -20   13.20   37.50
  26 -20  14    4.10    7.90
 -14  20 -26    3.40   37.40
  14  20  26   -2.60   13.10
  14 -26  20    1.90    5.10
 -14  26  20   -4.50   11.20
 -20  26 -14   -6.30   25.70
 -26 -16 -20   64.99   23.20
 -16  26 -20   20.90   32.60
  26 -16  20   50.69   14.80
  16 -20  26   88.99   15.00
 -20  16 -26   48.80   43.60
 -20 -26 -16   35.80   21.10
 -16 -20 -26   60.59   17.60
 -26 -20  16   56.89   18.40
 -26  20 -16   72.69   39.90
 -16  26  20   90.89   25.80
 -20  26 -16   44.30   32.30
  26 -20  16   62.69   14.90
  16  20  26   63.29   19.10
 -16  20 -26  172.78   53.99
 -16 -26 -20   98.29   25.30
 -26  16 -20   70.39   41.70
 -20 -16 -26   91.09   23.80
  26 -22   0  113.39   19.20
  22   0  26   91.29   26.40
   0  26  22  110.89   22.60
   0  22 -26  156.58   48.80
   0  22  26  106.59   22.30
 -26  22   0   73.09   25.10
   0  26 -22  111.59   43.00
  22 -26   0   71.99   17.20
 -22 -26  -2    0.40   10.70
  -2 -26  22   -4.00    5.50
  -2  26 -22    1.20   30.40
   2  22 -26  -13.10   38.60
 -22  26   2   13.40   15.40
  22   2  26    1.60   14.80
   2  26  22   -6.30   11.00
  22 -26   2   -3.60    7.40
   2 -22  26   -0.30    5.80
  26 -22  -2   -3.80    7.70
 -26 -22   2   -1.20   15.00
 -26  22  -2   -6.90   18.50
  -2  22  26    5.70   11.10
 -26  22   2   -0.90   17.40
 -26 -22  -2   12.70   17.40
  -2  22 -26   17.10   35.10
   2 -26  22    0.50    5.60
 -26   2 -22   17.30   46.60
   2  22  26   -8.10   10.10
 -22 -26   2   -4.20    9.30
  22  -2  26    3.90   14.60
 -26  -2  22   13.60   27.00
 -22  26  -2    0.80   17.40
  -2 -26 -22    1.80    9.40
   2  26 -22   -0.10   34.30
  -2  26  22  -13.10    9.90
  22 -26  -2   -4.00    6.90
  26 -22   2   -5.50    7.60
  22   4  26  100.99   28.70
 -26  -4 -22   50.29   22.00
 -22  26   4   72.19   20.80
  -4  26 -22   71.89   39.00
  22 -26   4   96.59   17.20
  -4  22  26   88.69   20.40
 -26  22  -4  156.08   39.10
  -4 -26  22   61.99   13.30
   4  26  22  107.79   23.00
  26 -22  -4   98.39   17.00
  22  -4  26  100.69   29.00
 -22  26  -4  123.99   35.30
  -4  22 -26  168.58   50.09
   4  22  26   55.49   18.50
  -4  26  22   78.89   21.00
  22 -26  -4   89.29   17.10
 -26   4 -22   57.99   54.09
  22   6  26   -9.90   14.40
  -6  26 -22   -4.40   29.30
 -26  22  -6  -16.60   21.20
  -6  22  26   -8.90    9.40
 -22  26   6    0.10   12.60
  22 -26   6    3.60    7.80
 -26 -22   6    5.00   14.20
 -26  -6 -22    3.30   15.50
  26 -22  -6   -6.10    6.90
   6  26  22    0.10   11.60
  -6 -22 -26    2.90    8.00
   6 -22  26    1.80    5.90
  -6 -26  22    2.30    5.90
   6  22  26    5.20   11.80
  26 -22   6    4.20    8.10
  -6  26  22    4.20   11.20
 -22  -6 -26   -5.60   12.60
 -26   6 -22   -7.10   45.30
  -6  22 -26  -14.90   31.90
  -6 -26 -22   -3.70    9.10
 -22 -26   6   -0.40    9.20
  -6 -22  26   -0.10    6.10
 -26  -6  22   -2.80   20.10
  22 -26  -6    0.30    8.10
 -22  26  -6  -17.60   19.70
 -22   8 -26   69.79   44.90
 -26  -8 -22   59.89   21.80
   8 -22  26   63.39   12.70
  -8 -26  22   84.39   13.60
 -26 -22   8  110.09   24.10
  26 -22  -8   76.99   15.20
  -8  26 -22   20.50   31.60
   8  26  22   93.39   22.90
  22   8  26   66.69   21.80
  -8  26  22   96.69   21.60
 -22  26  -8  157.58   40.80
 -26   8 -22  133.89   54.89
   8  22  26   98.29   22.10
 -22 -26   8   47.70   16.00
  26 -22   8   80.39   16.20
 -22  -8 -26   56.79   18.30
 -10  22  26   -2.50   10.10
 -22  26  10    9.00   13.80
 -26  22 -10   -2.30   23.70
 -26 -10 -22   20.10   16.40
 -10 -22 -26   -1.70    9.40
 -10  26 -22   22.00   31.70
 -10 -26  22    1.20    6.10
  10  26  22    3.20   12.30
  10 -22  26    3.70    5.60
 -22  10 -26   17.20   41.10
  22 -26  10    6.90    7.90
  22  10  26    6.40   18.50
 -26  10 -22  -15.30   41.60
 -22  26 -10   17.10   23.70
 -10  26  22   10.80   12.60
 -22 -26  10    7.30    9.70
 -26 -10  22    9.00   16.70
  10  22  26    2.60   12.70
 -22 -10 -26    0.20   13.10
 -10 -26 -22   15.60   11.60
 -10  22 -26   10.70   35.70
 -26 -12 -22   30.30   18.40
 -22  12 -26   56.29   45.50
 -22 -12  26   12.50   11.50
  12  26  22   50.29   17.90
 -26 -22  12   19.80   13.00
 -26  22 -12   27.70   29.70
 -12  22  26   47.80   15.00
 -12  26 -22   18.60   32.60
 -12 -22 -26    6.50   11.20
 -22  26 -12   76.99   29.50
 -26  12 -22   30.20   44.10
 -22 -26  12   22.40   11.20
 -12  22 -26   16.30   36.70
  12  22  26   58.89   17.90
 -22 -12 -26   60.49   17.80
 -12 -26 -22   23.30   14.10
 -12 -22  26   40.90   11.80
 -26 -12  22   39.00   18.50
 -12  26  22   31.90   14.80
 -14  26 -22   14.40   32.60
 -14  22  26   12.80   12.90
  14 -22  26   11.90    7.40
 -22  14 -26   14.90   40.90
 -26 -22  14    7.90   11.70
 -26  22 -14   13.90   30.20
  22 -26  14   17.40    9.10
 -22  26  14   18.20   16.00
 -22 -14  26   21.30   13.40
  14  26  22   14.90   16.50
 -14 -22 -26    0.60   11.20
 -26 -14 -22   15.60   17.60
  14  22  26   26.00   16.30
 -22  26 -14    6.20   25.40
 -26  14 -22   11.90   40.80
 -14 -26 -22   12.30   13.10
 -22 -14 -26   18.00   14.10
 -14  26  22   19.90   13.20
 -26 -14  22   11.30   14.70
  14 -26  22    5.50    5.80
 -14  22 -26    7.70   37.50
 -14 -22  26    4.60    8.30
 -24 -26   0  384.36   46.70
   0  24 -26  539.25   83.49
  24   0  26  357.96   52.09
   0 -26  24  323.37   40.90
 -24  26   0  357.26   51.29
  24   2  26  110.69   34.90
   2 -24  26  151.88   20.60
  24 -26   2  135.99   22.80
  -2  26 -24  104.59   41.70
   2  26  24  166.08   27.90
  -2  24  26  154.28   27.60
 -24 -26  -2  177.88   27.30
  26 -24  -2  118.89   22.30
 -26  24  -2  164.48   37.60
   2  24  26  175.08   28.70
 -24  26  -2  149.49   33.70
  26 -24   2  159.88   23.60
  -2  26  24  188.38   27.80
  -2  24 -26   74.49   43.80
  24  -2  26  144.89   33.90
 -26  24   2  102.19   32.40
 -26 -24  -2  110.29   28.00
 -26  24  -4  -13.00   19.10
   4  26  24   16.10   13.40
  -4 -24 -26    1.80    9.30
  -4  24  26   14.10   12.40
  24 -26   4    4.00    8.30
  -4  26 -24    5.00   32.60
 -26 -24   4    9.70   14.00
 -24  26   4    9.70   14.50
  26 -24  -4    5.10    8.00
   4 -24  26    6.10    6.70
  -4 -26 -24    1.90    9.70
 -24 -26   4   -3.00   10.30
 -24  26  -4   -5.40   19.30
   4 -26  24    9.30    6.90
  26 -24   4    7.10    8.90
  -4 -24  26   -2.40    6.40
  -4  24 -26   15.00   34.60
 -26   4 -24  -15.90   51.39
  24 -26  -4   11.90   10.00
   4  24  26   16.40   13.00
  -4  26  24   13.30   12.40
 -26  -6 -24   36.00   19.60
 -24   6 -26   16.80   46.60
  -6  26 -24   36.00   35.90
   6  26  24   61.59   18.40
  26 -24  -6   79.09   16.00
  -6  24 -26   99.59   42.20
  -6 -26 -24   43.60   14.00
  26 -24   6   54.69   15.70
  24 -26  -6   71.09   16.20
 -26   6 -24   71.59   55.09
 -24  -6 -26   99.89   26.20
 -24  26  -6  117.89   32.30
  -6  26  24  105.49   22.90
  -8  26 -24  328.87   69.39
 -26  -8 -24  310.27   44.60
 -24   8 -26  216.68   66.19
   8  26  24  310.17   41.70
   8 -24  26  256.37   33.10
  24 -26   8  277.47   35.90
 -26  24  -8  386.86   57.29
  -8  24 -26  312.87   67.99
 -24 -26   8  259.17   36.70
 -24  -8 -26  266.77   41.30
 -26   8 -24  463.85   91.89
 -26 -10 -24  201.68   40.70
 -24  10 -26  193.28   63.39
 -10  26 -24  130.49   47.10
 -10 -24 -26  236.38   29.00
  10  26  24  198.98   33.80
 -26  10 -24   95.29   54.79
  10  24  26  199.28   32.80
 -24  26 -10  129.79   38.40
 -24 -10 -26  211.98   34.90
  10 -26  24  153.68   23.00
 -10 -24  26  203.58   24.80
 -26  26   0  862.41   91.69
   0  26  26  701.53   87.29
  26 -26   0  803.92   85.89
 -26  26  -2  455.85   64.09
  -2  26 -26  307.17   83.09
  -2  26  26  407.86   56.99
   2  26  26  556.14   59.39
  26 -26   2  531.65   55.49
 -26   4 -26   24.80   59.59
  -4 -26  26  170.98   20.70
  -4  26 -26   40.80   41.80
  -4  26  26  145.89   27.60
   4  26  26  110.99   26.60
  26 -26  -4  117.79   21.20
 -26 -26   6  134.59   32.30
   6 -26  26  159.28   21.70
 -27   1   1  341.67   78.59
  -1 -27  -1  433.86   49.99
  -1  -1  27  534.45   55.89
  -1   1  27  494.25   54.89
   1 -27  -1  376.96   49.70
   1  -1  27  476.75   54.69
   1   1  27  522.95   55.49
   1  27   1  460.85   55.79
   3   1  27    0.50   10.10
 -27   1   3   -9.60   30.50
 -27  -3   1   10.60   34.60
  -3  -1  27    1.70   10.20
  -3  27   1   -2.00   13.60
  -1  27  -3   10.80   16.00
  -1   3  27    8.50   10.10
   1  -3  27    5.60   10.90
   1  27   3    4.00   10.90
   1 -27  -3   -3.00    4.30
   3 -27   1   -0.10    4.90
   3  27  -1   10.80   12.50
  -1 -27   3    5.80    5.40
   1   3  27    2.00   10.00
 -27  -1   3   15.00   34.20
   3 -27  -1    5.30    5.60
   1 -27   3    7.80    5.80
  -1  -3  27    1.10   10.60
   3  27   1    4.50   11.10
  -1  27   3    7.20   13.00
   3  -1  27    3.60    9.30
  -1 -27  -3    1.20    5.30
   1  27  -3   14.00   15.30
  -3  27  -1    2.40   13.90
  -3   1  27    5.60   11.20
 -27  -3  -1  -10.50   30.30
  -3 -27   1    6.30    5.10
  -3  -3  27   84.19   22.00
 -27  -3  -3  128.19   47.60
 -27  -3   3   14.50   34.40
  -3  27  -3   52.69   20.80
  -3   3  27   72.79   19.00
   3  -3  27   72.79   19.40
   3   3  27   84.19   19.40
   3  27  -3   90.09   23.80
   3  27   3   71.69   18.30
   3 -27   3   70.99   12.90
   1  27   5   -2.50    9.70
   5 -27   1    2.10    5.80
   5  27  -1   -3.80   11.20
  -1  27  -5   -8.40   13.90
   1  -5  27   -2.50   10.00
  -5  -1  27   -2.70   11.50
 -27  -5   1   -2.60   32.20
  -5 -27  -1   -1.10    4.60
   5   1  27   -4.20   10.60
  -5  27   1   -5.10   12.70
   1 -27  -5    0.00    5.10
  -1   5  27    0.10   10.20
  -1 -27   5    0.10    4.70
  -1  -5  27   -1.00   10.90
   1 -27   5    1.10    5.00
  -1  27   5   -1.00   10.00
 -27  -1   5   -5.90   30.80
   5 -27  -1    1.70    4.70
  -5  27  -1   -0.90   14.20
  -5   1  27   -0.30   11.20
  -1 -27  -5   -1.80    5.10
   1  27  -5   -1.70   14.80
   5  27   1    0.60    9.60
   1   5  27   -3.70    9.70
   5  -1  27   -1.20   10.40
  -5  27   3  214.08   35.70
   3  27   5  290.07   34.30
   5   3  27  192.68   32.90
 -27  -3  -5  152.88   53.79
   5  27  -3  286.57   37.20
  -3   5  27  296.47   34.90
 -27  -5   3  169.68   53.59
  -5  -3  27  223.28   34.70
   3  -5  27  222.28   33.70
  -3 -27  -5  212.78   28.60
 -27  -3   5  251.17   59.79
   5  -3  27  212.48   33.00
  -5  27  -3  301.17   41.70
   3  27  -5  236.38   38.50
  -3  -5  27  204.88   34.10
   3   5  27  277.37   34.50
   5  27   3  245.58   33.40
  -5   3  27  280.37   34.90
   5  27   5  627.94   66.69
 -27  -5   5  508.55   86.89
  -5 -27  -5  663.93   62.99
  -5 -27  -5  597.64   79.59
  -5 -27   5  614.64   61.99
  -5  -5  27  604.64   67.89
  -5   5  27  464.75   65.19
  -5  27  -5  536.85   71.19
   5  -5  27  482.85   65.49
   5   5  27  547.45   65.29
   5  27  -5  670.93   71.59
   1  -7  27  478.05   57.89
  -1  27  -7  397.76   60.99
  -7  -1  27  455.05   57.69
   1  27   7  555.44   57.69
   7   1  27  477.65   56.09
  -1   7  27  428.86   55.59
  -1  -7  27  563.54   60.19
   1   7  27  448.56   56.09
  -1  27   7  419.26   55.69
 -27  -1   7  490.65   82.69
   7  -1  27  483.25   56.99
  -7   1  27  537.05   58.29
 -27  -7  -1  553.04   81.49
  27  -3   7   44.00   11.10
   7  27  -3   61.39   18.40
  -7  27   3   80.59   22.90
   7   3  27   46.20   14.80
  27  -7  -3   31.20    9.90
   3  27   7   23.10   13.10
   3  -7  27   69.69   19.30
  -7  -3  27   58.89   18.30
 -27  -3  -7   25.50   36.40
 -27   3   7   55.79   41.50
  -3   7  27   66.79   17.50
  -3  27  -7    0.30   16.90
  -3  -7  27   48.00   16.90
  -7  -3 -27   32.60   11.40
   7  -3  27   36.00   14.40
 -27  -7  -3   29.20   34.70
   3  27  -7   50.69   22.10
  -7   3  27   62.19   18.60
   7 -27  -3   28.90    9.10
  -7 -27   3   35.20   10.20
   3   7  27   75.69   18.50
   7  27   3   47.70   15.10
   7   5  27    4.40    9.90
   5 -27  -7   -3.00    5.20
  -7 -27  -5    1.50    5.10
  -5  -7 -27    0.60    7.80
  -7  -5  27    3.70   12.40
  -5 -27   7   -3.20    4.50
  -7  27   5    1.80   12.50
 -27   5   7   -5.80   34.50
  -5  27  -7    3.70   16.40
   5  -7  27   -4.20   10.60
 -27  -7   5   -2.60   28.70
   7  27  -5    5.00   15.50
 -27  -5  -7  -12.90   30.60
   5  27   7    6.30   10.90
  27  -5   7   -2.50    5.80
  -5   7  27   -0.70    9.20
   5   7  27   -5.10   10.20
   7 -27  -5    0.60    5.20
  -7 -27   5   -0.40    5.50
  -7  -5 -27    1.60    8.20
   5  27  -7    5.10   16.70
 -27  -7  -5   34.60   33.50
   7  -5  27    1.00   10.90
  -7  27  -5    5.30   16.80
   5 -27   7    0.50    5.10
  -7   5  27    1.30   11.70
   7  27   5    8.70   10.60
  -5 -27  -7   -5.20   13.20
 -27  -5   7  -10.50   27.70
  -5  27   7    3.00   10.40
  -5  -7  27    1.90   13.30
  -7  -7  27  648.14   76.19
  -7  -7 -27  573.44   69.59
 -27  -7  -7  526.45   92.09
   7   7  27  765.02   73.79
  -7   7  27  565.24   71.89
 -27  -7   7  665.53   92.39
   7  -7  27  645.44   73.89
   7  27  -7  754.62   79.39
   9   1  27  482.55   53.39
   1  -9  27  411.36   53.99
  -1   9  27  478.55   52.59
   9  27  -1  424.16   52.89
   1  27   9  456.45   52.59
  -1  -9  27  395.76   53.89
  -9   1  27  526.55   56.29
  27  -9   1  384.96   48.30
   1   9  27  402.36   51.69
   9  -1  27  415.36   52.09
 -27  -9   3   62.89   34.50
   9  27  -3   64.99   21.20
 -27  -3  -9   18.60   37.10
  -3   9  27   82.09   19.60
   3  -9  27   60.49   18.50
  -9 -27  -3   75.19   14.10
 -27   3   9   36.40   37.30
   9   3  27   94.79   21.60
  -9  27   3   37.70   18.70
  -9  -3  27   80.79   24.80
  -3  27  -9  136.59   30.70
   3  27   9  110.09   21.30
  -3  -9  27   99.59   25.80
   9  -3  27   92.59   20.60
  27  -9   3   78.89   14.80
   3  27  -9  113.79   29.50
  -9   3  27   58.59   17.90
   3   9  27  108.79   20.40
  -3  27   9   93.19   21.60
   9  27   3   66.49   20.30
  -9  27  -3   72.59   24.40
 -27  -3   9   13.40   31.40
   5  -9  27    6.00   12.70
  27  -5   9    8.00    6.30
   5  27   9    2.10   10.50
 -27  -9   5    5.20   28.40
   9   5  27    9.60   11.60
  27  -9  -5    3.80    5.40
  -5  -9 -27    4.90    6.60
  -9  27   5    0.40   11.50
  -5   9  27    7.80   11.00
   9 -27   5   -0.90    5.50
 -27   5   9    5.50   33.90
  -5 -27   9    8.90    6.00
  -5  27  -9   -9.50   16.40
  -9 -27  -5    8.40    6.40
   5  27  -9   -2.40   18.90
   5   9  27    0.50   10.30
  -9 -27   5    0.00    6.50
  -9  27  -5   -3.90   17.40
  -5  -9  27   -9.90   13.90
  27  -9   5    4.10    7.20
  -5 -27  -9  -10.00   13.30
  -5  27   9   11.50   11.50
   5 -27   9    7.90    6.40
  -9  -5 -27    3.20    8.40
   9  -5  27    5.10   11.60
 -27  -5   9   17.80   31.30
   9  27   5    1.40   11.30
 -27  -9  -5   -5.70   30.00
  -9   5  27    4.60   11.70
   9 -27  -5    5.70    5.70
  -7   9  27  512.85   53.39
  -7  -9 -27  467.45   49.80
  -9  27   7  431.56   51.89
   9 -27   7  355.26   47.20
 -27  -7  -9  433.26   77.09
  -7  27  -9  525.45   61.79
   7  -9  27  395.76   53.59
  -9   7  27  468.05   53.19
   7  27  -9  538.05   62.59
  -9  -7 -27  398.66   49.40
   9 -27  -7  424.86   48.40
   7   9  27  437.06   52.79
   7 -27   9  395.86   47.50
  -7  -9  27  413.26   56.19
   9  27   7  411.26   51.59
  -9   9  27  338.97   47.30
   9   9  27  386.86   47.90
 -27  -9   9  310.37   62.19
   9  -9  27  426.46   50.29
  -9  27  -9  439.66   57.59
  -9 -27  -9  361.16   51.39
  27  -9   9  404.36   44.60
 -27   9   9  358.16   75.99
 -11  27   1   48.70   20.10
 -27 -11   1   23.50   30.60
  11 -27   1   66.59   12.20
 -11   1 -27   47.20   14.00
 -27  -1 -11   24.00   36.90
   1  27  11   75.29   19.10
 -27   1  11   35.50   35.50
 -11 -27  -1   68.29   13.70
  -1  11  27   36.70   14.30
   1 -11  27   41.20   16.70
  -1  27 -11   29.50   19.70
  11   1  27   61.09   17.10
  -1  27  11   38.90   15.00
 -27 -11  -1   71.49   34.00
 -11  -1 -27   62.59   16.30
  11  -1  27   47.70   16.10
  -1 -27 -11   71.09   19.50
 -11  27  -1  107.39   29.00
 -27  -1  11   92.99   41.00
  -1 -11  27   54.59   18.40
   1  11  27   62.39   16.60
   1  27 -11   28.30   21.40
   3 -11  27  101.39   23.60
   3  27  11  115.59   22.00
  -3  27 -11   71.59   24.60
  -3  11  27   72.39   19.00
  11   3  27   47.20   16.40
 -11  27   3   50.69   19.80
 -27   3  11   -1.30   32.40
  27 -11  -3   98.29   15.30
 -27  -3 -11    6.20   36.40
  -3 -27 -11  109.69   22.80
   3  27 -11   32.20   21.90
 -27  -3  11  145.59   44.30
  -3 -11  27   84.69   24.60
  -3  27  11  106.59   21.30
   3  11  27   77.29   19.90
  11 -27  -3   71.09   13.40
 -11  -3 -27   54.69   15.10
  11  -3  27   89.29   20.80
  11   5  27  278.97   37.00
 -27  -5 -11  171.18   57.19
  -5  11  27  267.07   35.20
 -11  27   5  276.17   38.10
 -11 -27  -5  266.77   32.50
   5 -11  27  231.18   37.10
  11  -5  27  246.28   36.40
  -5 -11  27  250.47   30.80
 -27  -5  11  268.87   57.49
  -5 -11  27  185.78   38.00
 -11 -27   5  292.67   32.40
   5 -27  11  238.28   30.10
   5  27 -11  252.87   46.70
  -5 -27 -11  278.67   37.40
 -27 -11  -5  241.58   55.99
   5  11  27  273.07   35.90
 -27   7  11   14.30   34.60
 -11  27   7    1.90   11.70
 -27 -11   7    0.40   25.50
  -7  11  27   14.20   11.30
 -27  -7 -11   34.80   36.10
  27 -11  -7    6.60    5.70
   7 -11  27    2.10   12.60
   7  27  11    4.90   10.60
  11   7  27   19.60   12.80
  -7 -27  11   10.70    6.80
  -7 -11 -27   23.80   10.10
  -7  27 -11    0.80   18.40
 -11  27  -7    1.10   18.50
 -27  -7  11  -14.00   25.70
  11  -7  27   11.40   12.60
  -7 -11  27   19.20    9.60
  -7  27  11    8.20   12.30
 -11 -27   7    2.00    7.20
  11 -27  -7   14.40    9.90
   7 -27  11    1.60    5.80
 -11  -7 -27   14.40   10.10
   7  11  27    5.10   12.00
  11  27   7   -0.90   10.90
  -7 -27 -11   16.90   14.10
 -27 -11  -7    5.40   29.40
 -11   7  27    4.30   12.30
   9 -11  27   10.10   13.70
 -27  -9 -11   47.60   35.10
 -27 -11   9    0.80   25.10
 -27   9  11  -10.00   34.70
  -9 -11 -27    3.00    8.40
  11 -27   9   26.10    8.30
   9  27  11    6.40   11.80
  -9  27 -11   12.20   20.20
 -11  27   9    3.20   11.80
  -9 -27  11    3.70    6.90
  11   9  27    9.50   10.80
  -9  11  27    9.80   11.40
  27  -9  11   29.30   10.30
  -9  27  11   15.10   12.00
  11  27   9   14.30   13.80
  27 -11   9   18.00    9.40
  -9 -27 -11    2.90   14.60
 -11   9  27   17.20   13.80
 -11  27  -9   -1.30   18.90
  -9 -11  27    5.90    7.80
   9  11  27   11.30   12.10
  11  -9  27   15.20   13.50
 -27  11   9    7.00   35.40
 -11  -9 -27    8.90    9.30
 -27 -11  -9    6.00   29.70
 -27 -11 -11   48.10   36.90
  11  27  11   43.60   15.40
 -11  11  27   79.59   20.20
 -27  11  11   24.30   41.10
 -11  27 -11   54.29   26.60
 -11  27  11   55.79   18.00
 -11 -27 -11   28.40   17.10
  11 -11  27   50.69   18.70
   1 -13  27   -1.20   13.20
 -13  27   1   -3.20   15.80
 -13   1 -27    0.00   14.80
   1 -13  27    0.60    6.10
  -1  13  27   -9.00    9.60
   1 -27 -13   -3.10    9.70
  13   1  27    0.40   10.70
 -27   1  13   17.40   31.30
   1  27  13   -4.70   10.50
  -1  27 -13   -3.20   17.10
 -13 -27  -1    2.90    6.60
  -1 -13  27  -13.60   13.50
  -1  27  13   -0.60   10.60
   1  27 -13   11.50   20.10
 -27 -13  -1  -10.30   23.10
  -1 -27 -13    1.70   10.10
   1  13  27   -0.30   10.80
  13 -27  -1   -3.20    5.40
  13  -1  27    5.60   11.70
   1 -27  13   -2.30    5.10
 -13  -1 -27   -2.90    9.80
 -13  27  -1    1.00   15.90
  -1 -13  27   -3.60    5.80
 -13 -27   1   -2.20    6.40
 -27  -3 -13   93.39   47.50
  27  -3  13  169.38   22.10
  27 -13  -3  123.39   21.60
   3 -13  27  179.88   31.40
  13  -3  27  207.58   30.20
  13 -27  -3  149.39   21.60
   3  27 -13  145.49   39.90
 -27 -13  -3  218.88   47.30
   3  13  27  181.48   26.70
  13   5  27  404.26   48.70
  13 -27   5  339.97   42.50
  -5  13  27  345.47   46.30
   5 -13  27  429.76   51.29
   5 -13  27  465.35   45.50
 -27   5  13  451.35   76.79
  27  -5  13  351.26   43.00
   5  27  13  353.46   46.50
 -27 -13   5  407.76   62.89
   5 -27  13  338.07   42.00
   5  27 -13  470.45   62.79
  -5  27  13  300.47   45.70
   5  13  27  436.36   48.20
  27 -13  -7    2.10    5.80
  13   7  27    1.40   11.70
  27  -7  13   -3.20    6.20
 -27   7  13   11.80   35.50
  -7 -27  13   -2.40    5.40
  -7  27 -13    3.30   20.70
   7 -13  27   -5.30   13.00
   7  27  13   -0.70   11.30
  -7  13  27    0.20    9.50
 -13  27   7   -2.60   10.10
  -7 -13 -27    1.90    8.10
  13 -27   7    0.20    5.80
 -27  -7 -13  -17.80   33.60
 -27 -13   7   -4.20   23.90
 -13  27  -7   -2.60   19.40
   7  13  27   -0.20   10.70
 -13  -7 -27   -1.50    8.80
 -13   7  27    5.90   14.70
  -7 -27 -13   -2.40   12.10
 -27  -7  13    7.10   26.50
  -7 -13  27    1.80    6.20
  13  -7  27    2.90   12.70
  -7  27  13    3.50   10.20
 -27 -13  -7   30.10   30.80
  13 -27  -7    2.60    7.70
 -13  27   9   -0.90   11.70
 -27  -9 -13   26.80   37.10
  27  -9  13   -2.30    6.80
  -9  13  27    8.20   10.60
  -9  27 -13   -1.00   21.10
  -9 -13 -27    1.10    8.70
   9  27  13    1.10   11.60
 -27   9  13    4.20   36.60
 -27 -13   9   -8.50   22.50
  -9 -27  13   -4.10    5.80
   9  13  27   -8.90   10.90
  -9  27  13   -4.60   11.10
 -13   9  27   -5.30   13.80
  -9 -13  27   -3.70    6.50
 -27 -13  -9  -17.10   26.60
  13  -9  27   -7.00   12.00
  27 -13   9   -6.30    6.80
 -13  27  -9   -4.20   20.00
  -9 -27 -13   -3.80   12.60
 -13 -27   9   -8.00    6.10
 -13 -11  27  223.38   33.90
  13  11  27  230.88   33.10
 -13  27  11  153.28   31.20
 -11 -13 -27  252.67   30.40
 -11  27 -13  165.68   44.30
  13 -27  11  255.27   27.10
 -27  11  13  145.39   57.09
  11  27  13  206.88   32.40
  13 -11  27  239.78   37.10
  11  13  27  198.48   32.90
 -11  27  13  234.28   32.30
 -13  11  27  215.38   33.70
 -27  13  11  110.99   62.89
 -13 -27  11  207.18   27.80
 -13  27 -11  203.18   44.20
 -11 -13  27  203.08   29.40
 -27  13 -13  384.56   65.79
 -13 -27  13  242.48   31.50
  13 -27  13  207.28   29.40
  13  13  27  264.67   36.00
  27 -13  13  289.67   33.90
 -13  27  13  262.37   35.50
   1 -27 -15  206.98   30.10
  27 -15  -1  248.18   28.00
 -27  -1 -15  115.79   52.69
  -1  27 -15  192.08   42.70
   1  27  15  208.88   30.10
  -1  15  27  267.07   44.70
  15 -27   1  168.68   25.40
 -15 -27  -1  206.48   28.00
 -27  -1  15  151.88   48.00
 -15  -1 -27  200.58   29.60
   1  27 -15  254.97   46.00
 -15 -27   1  200.28   27.60
 -15 -27  -3    8.10    8.30
 -27  -3 -15    4.00   35.30
   3  27  15   10.70   11.50
   3  15 -27   22.60   39.10
  15   3  27   18.20   13.00
  -3 -27  15   18.30    7.80
  -3  27 -15   -8.40   19.90
   3 -15  27   15.70    8.10
 -27 -15   3   11.00   23.50
  15 -27   3   14.40    7.60
  27  -3  15    0.90    5.10
   3  27 -15   13.90   21.60
 -15 -27   3    8.30    8.40
   3 -27  15   17.70    8.20
  15 -27  -3    6.40    7.20
  -3 -15  27    0.90    5.70
 -15  -3 -27    9.20   11.30
   3  15  27    7.90   15.30
 -27  -3  15   -8.70   26.30
  -3 -27 -15   -1.00    9.90
  15  -3  27   11.50   15.10
 -27 -15  -3   -1.00   24.40
 -27  -5 -15   18.60   37.20
 -15  27   5    0.00   13.20
  27 -15  -5    3.30    6.40
  -5  15  27    6.00   11.40
 -27   5  15   13.20   33.30
   5 -15  27    4.10    6.90
   5  15 -27   12.50   40.30
  -5  27 -15   -5.50   36.80
   5  27  15    3.50   10.80
  -5 -15 -27    4.40    8.20
   5  27 -15    1.10   29.20
  15 -27  -5    0.80    7.70
 -15  -5 -27    2.90   10.00
  -5 -27 -15   -0.70   11.00
 -15  27  -5   14.60   20.50
 -27 -15  -5   10.40   28.30
  27 -15   5    7.50    9.00
 -15 -27   5    1.50    9.20
   5 -27  15    2.70    5.80
 -27  -5  15    3.30   36.90
  -5 -15  27    4.50    6.10
  -5  27  15    3.20   11.40
  15  -5  27    3.20   13.50
   5  15  27    5.80   11.60
  27  -7  15  193.48   25.10
 -27 -15   7  166.48   40.80
  -7  15  27  202.28   28.50
 -27   7  15  199.68   59.09
  15   7  27  234.58   31.70
 -15  27  -7  111.89   34.90
  15  -7  27  186.98   31.80
 -15 -27   7  154.08   24.50
  -7  15 -27  137.59   48.70
   9 -15  27  320.07   38.70
   9  27  15  288.37   41.80
  27  -9  15  362.76   40.30
 -27  15  -9  399.66   72.79
 -15  27   9  374.46   43.80
  -9  27 -15  259.17   57.19
 -15  27  -9  365.16   54.69
  15  -9  27  261.87   44.90
  27 -15   9  390.26   41.50
  -9 -15  27  308.27   39.20
  -9  15 -27  444.46   78.39
   9  15  27  318.37   42.90
 -27  15 -11   37.30   32.10
 -11  27 -15  -14.10   21.60
 -27 -15  11    3.20   20.50
  27 -11  15   -5.10    6.60
 -15  27  11    4.70   12.20
 -27  11  15  -10.20   37.70
  15  11  27   -0.10   11.20
  11  27  15    0.30   11.60
 -11 -27  15    4.90    7.70
 -11  15  27   -6.90   10.70
 -11 -15 -27   -3.20    8.70
 -27 -11  15   -4.70   20.40
 -27  11 -15   -5.60   36.90
  11  15  27    5.70   12.50
 -11  27  15    0.60   11.30
 -27  15  11   -7.10   34.30
 -15  27 -11  -15.10   21.20
  11 -27  15   -1.70    4.80
 -15 -11 -27   -0.80    9.40
 -15 -27  11    0.30    7.10
 -11  15 -27   -7.50   32.90
 -11 -27 -15    1.10   13.70
 -11 -15  27    0.40    8.40
 -27  15 -13   14.80   32.10
 -13  27 -15  -16.20   23.50
 -13 -15 -27    0.90    9.40
 -15 -13  27   28.70   11.90
 -15  13 -27    5.20   36.00
 -27  13  15   25.50   44.60
 -15 -27 -13   -7.90   14.10
 -15  27  13    3.80   10.80
 -27 -15  13   -1.00   18.30
 -13 -27  15    6.80    7.90
 -13  15  27    3.00   11.70
  13  27  15    7.00   13.40
  15  13  27   19.20   13.10
 -27  15  13  -17.00   40.20
 -15 -13 -27    4.90   10.40
 -13 -15  27    0.50    8.70
 -15  27 -13   12.10   25.10
 -13  15 -27    5.30   37.90
 -15 -27  13   -1.10    6.80
 -27  13 -15   37.40   39.70
 -27 -13  15    4.00   18.90
  13  15  27    0.80   11.90
 -13 -27 -15   -1.20   14.10
 -13  27  15    8.60   11.50
 -15  15 -27  108.69   47.80
  27 -15  15   84.29   17.60
 -15  15  27  130.69   28.20
 -15 -15 -27   82.99   20.30
 -27  15 -15  115.99   43.40
 -15  27 -15   74.09   33.40
  17   1  27  330.97   41.10
 -27  -1 -17  163.38   63.49
  -1  17  27  326.57   38.40
  -1  17 -27  258.27   69.09
  17  -1  27  268.17   39.80
  -1  27  17  288.57   38.20
 -17  -1 -27  219.08   37.40
   1  27 -17  312.77   52.89
  -3 -27  17   88.09   14.00
   3 -17  27   79.69   15.10
 -17 -27  -3  108.09   19.30
   3  27  17   88.99   21.40
   3  17 -27  144.59   51.79
  17   3  27   77.69   22.20
  -3  17  27   72.69   20.00
  -3  27 -17   33.30   27.00
 -17  27   3  121.99   26.00
  -3  17 -27   80.19   43.80
   3  17  27  117.59   22.60
  27 -17   3  115.29   18.70
  17  -3  27   94.49   24.80
 -17 -27   3   85.99   17.60
  -3  27  17   98.39   21.80
   3 -27  17   82.39   14.50
   3  27 -17   74.69   30.90
 -17  27  -3   65.19   25.50
  -5 -17 -27   -0.70    7.10
  17 -27   5   -1.60    6.10
  27  -5  17    7.10    7.10
 -17  27   5   -5.80   11.70
  27 -17  -5    0.70    6.90
  -5  27 -17   22.30   25.40
  17   5  27   -2.10   11.80
  -5 -27  17   -4.50    4.70
   5  27  17   -2.20   10.30
 -27 -17   5    1.20   19.90
  -5  17  27   -5.50    9.00
  -5 -27 -17    7.00   10.30
 -17 -27   5    1.30    7.80
 -17  27  -5    0.90   18.90
  -5  17 -27   -5.30   32.70
   5 -27  17    2.30    5.70
   5  17  27   -2.10   11.20
  -5  27  17   -3.30   10.60
 -27 -17  -5   -2.10   24.70
  17  -5  27    1.50   13.20
  -5 -17  27    1.20    6.30
 -17  -5 -27    1.60    9.90
  17 -27   7  364.96   41.40
  -7 -27  17  364.96   40.60
   7  27  17  357.96   45.00
  -7  17  27  413.36   45.70
  27  -7  17  412.96   42.80
  17   7  27  325.47   46.20
  -7  27 -17  353.96   60.29
 -27 -17   7  317.27   53.59
 -27  17  -7  283.37   61.49
  -7  17 -27  272.07   71.59
  -7  27  17  369.36   45.50
  17  -7  27  354.66   48.00
 -17  27  -7  316.17   53.99
 -27 -17  -7  299.97   58.79
 -17  -7 -27  403.16   45.60
  27  -9  17  426.96   53.09
  17   9  27  567.84   59.09
 -27  17  -9  541.65   74.49
   9  27  17  564.04   57.99
 -17  27   9  419.06   55.69
 -17  27  -9  406.86   65.39
  17  -9  27  420.46   58.79
   9 -27  17  461.45   51.49
  -9  17 -27  437.76   83.29
  -9  27  17  470.45   56.39
   9  17  27  506.35   57.29
 -11  27 -17   55.39   31.30
  27 -11  17   65.69   14.70
 -11  17  27   54.49   16.10
 -27  17 -11   19.80   29.70
  11  27  17   41.80   15.80
  11 -17  27   60.99   12.90
  17  11  27   53.19   18.20
 -11 -17 -27   74.39   16.90
 -17  27 -11   55.29   28.10
 -11  17 -27   49.00   40.80
 -11 -17  27   75.99   15.40
 -17 -27  11   69.89   14.50
 -11  27  17   43.80   16.40
 -27  11 -17   96.99   49.00
 -11 -27 -17   59.39   19.00
  11  17  27   78.99   22.50
 -13  27 -17    0.10   25.30
 -13 -17 -27    9.80   10.30
 -17  27  13    9.50   11.60
  17  13  27    7.70   13.60
 -27  17 -13   24.10   32.30
 -13  17  27    6.50   12.00
  27 -13  17    5.80    8.00
 -27 -17  13    2.40   16.80
 -17  13 -27   -5.50   37.00
 -17 -13  27    2.10    8.50
  13  27  17    5.50   13.50
 -13  27  17   10.20   12.60
  13 -27  17   18.90    7.20
 -27 -13  17   21.90   20.10
 -27  13 -17   18.40   39.60
 -13 -27 -17    9.00   14.00
 -13 -17  27    6.70    9.60
 -13  17 -27    5.50   37.60
 -17 -13 -27   -0.40   10.60
  13  17  27   12.80   13.30
 -17  27 -13   -6.60   22.40
  27 -17  13    9.30    8.20
  17  15  27  201.58   33.90
 -15  27 -17  197.98   50.89
 -17 -27 -15  210.08   35.90
 -27 -17  15  178.98   34.20
 -27  17 -15  232.28   61.39
  17 -27  15  194.68   23.90
 -15  17  27  230.08   34.50
 -15  27  17  174.18   29.10
 -17 -27  15  158.08   25.10
 -15 -27 -17  143.69   34.20
 -15  17 -27  175.18   55.19
 -27  15 -17  196.08   55.29
  15 -27  17  187.68   23.70
  15  17  27  231.88   32.00
 -17 -27 -17  208.98   39.30
  27 -17  17  279.87   32.50
 -17  17 -27  385.96   78.19
 -17 -17 -27  224.88   34.50
 -17  27  17  222.88   34.00
 -17 -27  17  209.48   30.40
  17  17  27  274.97   38.30
 -27  17 -17  380.66   73.29
 -19  27   1   40.90   19.00
  -1  27 -19  113.09   34.70
   1  27  19   90.79   21.00
  19   1  27   47.00   18.00
  -1  19  27   42.90   14.90
   1  19 -27   63.69   42.90
  27 -19  -1   70.79   15.00
 -19 -27  -1   47.10   14.60
  -1 -27  19   68.99   11.80
   1 -19  27   42.30   11.40
 -27   1  19   -8.70   28.10
   1  19  27   56.79   16.50
 -27 -19  -1   15.20   20.10
  19 -27  -1   65.19   14.40
  -1 -19  27   44.60   11.70
  -1  19 -27   46.80   39.40
 -27  -1  19   54.19   32.50
 -19  27  -1   97.89   28.60
  -1  27  19   30.30   14.90
  -1 -27 -19   58.19   17.80
  19  -1  27   36.40   17.30
  -3  19  27   30.50   13.10
 -27 -19   3    9.70   19.00
  19   3  27   16.10   14.60
  -3 -27  19   27.30    8.50
 -19 -27  -3   25.10   11.90
   3  27  19   34.10   14.40
  27 -19  -3   42.70   11.40
   3  19 -27   42.50   42.60
  19 -27   3   40.50   12.30
  -3 -19 -27   21.10   10.40
  -3  27 -19   31.20   28.80
 -19  27   3   16.40   15.70
  -3 -27 -19   26.70   12.50
  19  -3  27   18.50   15.00
 -19  27  -3    0.90   18.40
 -27 -19  -3   22.50   22.50
  -3  19 -27   14.90   38.30
  19 -27  -3   53.19   13.60
 -27  -3  19   15.60   27.30
   3  27 -19   25.00   31.20
  -3  27  19   46.50   15.80
   3  19  27   12.10   12.90
 -19  -3 -27   40.90   14.10
   3 -27  19   37.50    9.60
  27 -19   3   31.90   11.90
 -27 -19   5   42.20   22.10
  -5  27 -19   15.40   27.10
  27  -5  19   22.10   10.00
  19 -27   5   37.30   11.30
  -5  19  27   25.10   12.30
   5  27  19   38.60   15.10
 -27  19  -5   37.70   25.50
  27 -19  -5   30.50   10.30
 -19  27   5   49.60   17.10
  19   5  27   18.70   14.50
 -27   5  19   10.00   34.60
  -5 -27 -19   12.80   11.10
  -5  27  19   62.99   17.00
   5 -27  19   32.50    9.50
 -27 -19  -5    6.90   22.10
 -19  27  -5   24.30   21.70
 -19  -5 -27   21.30   13.00
   5  19  27   31.60   14.00
  19  -5  27   48.50   18.30
  -5 -19  27   52.79   11.30
  19 -27  -5   27.70   11.40
  -5  19 -27   18.60   36.60
  -7  19  27   93.89   19.90
 -19  27   7   68.49   20.60
  -7  27 -19  107.49   36.60
  -7 -19 -27  111.09   18.60
  19   7  27   80.09   24.50
   7 -19  27   84.89   14.40
  27 -19  -7  111.59   16.70
  27  -7  19   61.89   15.10
  -7 -27 -19   46.70   16.00
  -7  27  19  116.09   23.50
  -7  19 -27   85.19   44.00
 -19  -7 -27   51.99   17.20
 -27 -19  -7   28.10   26.00
 -27  -7  19   66.09   27.20
  19  -7  27   87.19   25.80
   7 -27  19   84.69   13.50
   7  19  27   68.49   20.90
 -19  27  -7  126.49   35.50
 -27  19  -9  205.28   44.00
  27  -9  19  113.19   19.80
 -19  27   9   85.29   23.30
   9 -19  27  123.39   18.20
  27 -19  -9  145.89   20.00
  -9  27 -19  134.69   39.40
  -9 -27  19  122.89   17.70
   9  27  19  110.59   23.60
  19   9  27  137.79   26.70
 -19  -9 -27  129.89   24.80
  -9  27  19  167.38   25.90
 -19 -27   9   94.39   19.50
 -19  27  -9  130.99   37.60
 -27   9 -19  153.78   54.19
  -9  19 -27   53.99   42.00
 -19  27  11    5.10   12.50
 -27  19 -11  -17.60   24.90
  11  27  19    1.70   12.60
  19  11  27    7.90   14.10
  11 -19  27   -2.00    6.00
  19 -27  11    0.20    6.70
 -11 -19 -27   -7.00    8.60
 -19  11 -27    6.70   38.10
 -11  19  27    0.60   11.00
 -11  27 -19  -10.60   27.40
 -11  27  19   -5.90   11.00
 -19 -27  11    5.20    8.50
 -27 -11  19    3.20   18.00
 -27  11 -19    7.40   40.40
  11 -27  19    1.10    5.30
 -11 -19  27    1.60    7.00
 -19 -11 -27   17.00   12.60
 -11 -27 -19    4.20   12.60
 -11  19 -27  -19.10   33.50
 -19  27 -11   -1.40   21.70
  11  19  27    8.80   12.70
 -13  27 -19   32.90   30.30
 -13 -19 -27   28.70   12.30
 -19  13 -27   46.00   41.80
  27 -13  19   16.40    9.00
 -13  19  27   13.70   12.50
 -19  27  13   29.50   13.90
 -27  19 -13    4.20   29.20
 -19 -13  27   43.50   14.30
  19 -27  13   42.30   10.90
  19  13  27   16.80   14.90
 -13  27  19   22.30   13.70
 -27  13 -19   45.90   39.80
 -13 -27 -19   32.50   16.40
 -13  19 -27    8.00   37.30
  13 -27  19   34.30    9.20
 -19  27 -13   29.10   25.20
  13  19  27   39.20   16.60
 -19 -13 -27   41.40   15.20
 -27 -13  19   11.90   16.90
 -15 -19 -27    7.20   11.50
  19 -27  15   13.60    7.70
 -27  19 -15   52.29   36.80
 -15  27 -19   -0.40   29.70
 -15  19  27   18.60   13.80
 -19  27  15   18.60   14.00
 -19 -27 -15   19.80   19.10
  19  15  27   18.20   17.80
 -19 -15  27    3.90   10.60
 -27 -19  15    9.00   14.10
 -19  15 -27   23.50   44.00
 -27  15 -19    3.80   38.30
 -19 -15 -27    0.70   12.60
  15  19  27   31.00   15.60
 -19  27 -15    2.60   26.20
 -19 -27  15   33.60   10.90
 -15  19 -27   -9.00   35.40
 -15 -27 -19    9.40   15.50
 -15 -19  27   18.20   10.20
 -15  27  19   31.20   14.80
  15 -27  19   17.70    7.20
 -27 -19  17   72.39   20.60
  19  17  27   50.49   30.20
 -19  17 -27   71.09   78.79
  27 -17  19   33.00   11.60
 -19 -27 -17   26.40   19.30
 -17  27 -19   79.29   60.69
 -19  27  17   87.39   24.30
 -27  19 -17   85.29   47.30
 -17  19 -27   31.70   52.39
 -17 -27 -19   34.90   24.80
 -17  27  19   46.60   18.70
 -27  17 -19   34.60   40.50
  -1  21  27    8.30   11.70
 -21 -27  -1   13.50   11.00
  -1 -27  21   26.20    8.50
 -27   1  21    0.40   28.90
 -21  27   1   14.10   17.50
  21   1  27   16.40   15.90
  -1  27 -21   24.80   29.80
  27 -21  -1    8.00    9.20
   1  27  21   17.80   12.80
 -27  21  -1   13.40   19.80
  21 -27   1   28.20   10.80
   1  21 -27    9.30   40.90
 -27 -21   1    6.00   16.90
   1  27 -21   -4.20   30.80
  21 -27  -1   19.30    9.70
 -27 -21  -1   10.90   18.90
 -21 -27   1   11.60   10.10
  27 -21   1   28.40   11.40
  -1 -27 -21   14.10   11.40
  -1  21 -27   -1.20   35.80
 -27  -1  21   13.40   28.60
  -1  27  21    9.70   12.80
   1 -27  21    5.70    6.10
  -1 -21  27    6.80    6.50
   1  21  27    9.40   11.80
  21  -1  27    9.90   14.40
 -21  27  -1   16.40   17.40
  -3  21  27  209.28   33.30
  -3  27 -21  254.07   56.99
   3  27  21  271.17   35.10
   3 -21  27  285.47   30.20
 -27  -3  21  287.07   49.80
  21 -27  -3  189.88   30.40
  -3 -21  27  262.27   30.20
  -3  21 -27  279.87   65.89
  -3 -27 -21  230.88   31.70
   3  21  27  216.48   34.70
  21  -3  27  241.48   38.80
 -21  27  -3  277.67   45.60
  -3  27  21  180.18   33.60
   5  27  21  173.08   31.90
 -21  27   5  228.68   33.60
  -5  27 -21  326.07   55.49
  21   5  27  274.57   37.60
  27 -21  -5  219.78   28.40
  -5  21  27  232.18   32.20
 -21  -5 -27  178.58   33.80
   5  21  27  198.98   33.10
  -5  27  21  268.97   34.30
  -5  21 -27  257.57   63.39
  21  -5  27  230.68   38.60
 -21 -27   5  168.78   28.90
   7  27  21   -3.60   12.10
  -7  21  27    3.60   11.10
  -7  27 -21  -20.60   26.40
  21   7  27    3.70   14.70
 -27  -7 -21    4.70   16.10
 -27  21  -7    8.20   25.40
  -7 -21 -27    2.60    8.60
  -7 -27  21   -2.60    5.50
 -21  27   7   -2.00   12.20
   7 -21  27    0.00    5.80
 -27  -7  21    2.30   19.90
 -21  -7 -27    3.00   12.20
  27 -21   7   -1.90    7.90
  -7  27  21   -0.50   12.20
   7 -27  21   -2.20    4.80
   7  21  27   -3.80   10.80
  -7 -27 -21   -3.40    9.80
 -21  27  -7   11.80   21.50
 -21 -27   7   -0.40    8.50
  -7 -21  27    3.50    6.40
  -7  21 -27    9.20   35.70
  -9 -27  21   -5.20    5.40
  27 -21  -9   -1.30    6.70
 -27 -21   9    3.70   14.80
 -21  27   9    0.60   12.50
 -21   9 -27  -12.00   37.60
  21   9  27   -7.60   14.40
   9 -21  27   -2.10    5.00
  -9  21  27   -3.00   10.40
  -9  27 -21    0.60   30.10
 -27  -9 -21    3.60   15.70
 -27  21  -9   10.10   26.30
  -9 -21 -27    3.10    8.90
   9  27  21    6.80   12.90
  -9 -27 -21    1.60   10.40
  27 -21   9   -4.60    6.80
 -21 -27   9    2.10    8.20
  -9 -21  27   -1.80    6.10
 -27   9 -21   -9.50   45.40
 -27  -9  21    9.60   19.60
 -21  27  -9    5.40   21.80
   9  21  27  -12.00   11.00
   9 -27  21    1.60    5.00
  -9  21 -27  -12.40   35.10
  -9  27  21   -5.80   11.90
 -21  -9 -27   -0.20   12.10
 -27 -11 -21   33.60   19.30
 -27  21 -11   69.39   30.60
 -21  27  11  107.79   23.60
 -11 -21 -27   58.99   17.70
  11  27  21   31.60   16.10
  21  11  27  115.79   28.30
  21 -27  11   52.19   13.40
 -21  11 -27  133.49   52.99
 -11  27 -21   39.40   32.80
 -11 -27  21   60.59   12.90
 -11  21 -27   40.60   39.20
 -27  11 -21   80.49   52.19
  27 -21  11   90.79   16.40
 -11 -21  27   69.59   13.90
 -21 -27  11   67.39   15.80
  21 -27  13   89.99   17.10
 -27  21 -13  190.98   52.89
 -21  27  13  133.69   26.60
 -27 -13 -21  103.69   31.50
 -13  21  27  156.48   25.80
 -13 -27  21   83.79   16.80
 -27  13 -21   73.19   48.30
 -13  21 -27  234.18   64.99
 -21  27 -13  191.78   46.40
 -13  27  21  111.69   24.30
  13 -27  21  112.29   16.20
 -13 -27 -21   73.09   24.20
  27 -15  21   21.40   12.90
  -1  23  27   11.10   11.90
 -27  23  -1    7.20   20.40
   1  23 -27  -30.60   46.40
 -27 -23   1    5.60   15.90
  -1  27 -23   16.70   31.40
 -23  27   1   35.20   18.80
  27 -23  -1   17.40   10.40
  23   1  27   11.60   16.60
   1 -23  27   11.90    7.30
 -23 -27  -1   37.70   14.40
  23 -27   1   28.30   11.70
   1  27  23   10.60   13.20
 -23 -27   1   11.70   10.20
  -1  23 -27    9.20   38.90
 -27 -23  -1   -0.10   15.30
  23  -1  27    3.60   15.60
  27 -23   1   14.60   10.40
  -1 -23  27    6.90    6.70
  23 -27  -1   14.30    9.40
 -23  27  -1    9.80   16.70
   1  23  27    9.20   12.40
   1 -27  23   21.70    8.00
  -1  27  23   10.40   13.10
 -27 -23   3    9.40   14.10
  23   3  27   48.50   21.00
  27 -23  -3   32.20   10.80
 -27  23  -3    5.90   20.80
   3  27  23   43.20   16.10
  -3  23  27   27.20   14.10
  -3 -27  23   37.10   10.70
  -3  27 -23    7.80   30.40
 -23  27   3   40.30   17.50
  23 -27   3   19.10   10.40
 -23 -27   3   26.70   11.90
  -3  23 -27  -19.60   36.30
  23 -27  -3   45.30   14.00
 -27 -23  -3    0.60   15.10
  23  -3  27   29.30   19.10
  -3 -27 -23   28.00   11.60
  27 -23   3   48.50   13.40
   3 -27  23   19.60    8.00
  -3  27  23   30.90   14.10
 -23  27  -3    0.00   19.00
   3  23  27   27.50   16.50
 -27  23  -5   35.50   27.70
   5 -23  27   44.30   11.40
 -27 -23   5   29.60   17.30
  23   5  27   52.89   20.10
  27 -23  -5   60.39   14.10
  -5  27 -23  135.49   41.40
  23 -27   5   42.70   13.30
   5  27  23   44.30   16.90
 -23  27   5   24.80   15.60
  -5  23  27   78.79   21.50
 -27  -5  23   64.69   26.10
  -5  23 -27   48.30   39.50
 -23  27  -5   48.30   24.70
  -5 -27 -23   63.89   15.30
   5  23  27   84.99   20.60
  -5  27  23   70.49   20.30
  -7 -23 -27   14.40   10.30
   7 -23  27   32.80    9.00
  23   7  27   32.60   20.60
  -7  27 -23   38.70   33.90
 -27  23  -7   18.80   26.10
  -7  23  27   23.90   13.40
   7  27  23   44.00   16.20
 -27  -7 -23    6.80   18.00
 -23   7 -27   -3.80   42.10
 -23  27   7    5.30   14.70
 -27 -23   7   19.00   15.10
  -7 -27  23   11.50    7.20
  27 -23  -7   21.90    9.10
 -27   7 -23   51.09   52.99
  -7 -27 -23   27.50   11.80
 -27  -7  23   -5.40   19.30
  -7  27  23   40.10   15.30
 -23  -7 -27   23.80   15.60
 -23  27  -7    1.60   22.20
   7  23  27   47.00   17.30
 -23 -27   7   53.99   14.70
  -7  23 -27   39.70   41.10
   9 -23  27   39.80   10.70
 -27  -9 -23   62.89   23.60
 -27  23  -9   97.09   33.70
 -23  27   9   40.50   17.10
  -9 -23 -27   41.30   13.30
 -23   9 -27   73.09   50.99
  -9  27 -23   43.70   35.20
  -9  23  27   49.90   15.70
 -27   9 -23   63.69   51.09
  -9  27  23   41.90   15.20
 -23  -9 -27   37.50   16.60
  -9  23 -27   84.39   42.20
  27 -23   9   62.09   15.10
   9  23  27   66.79   19.20
 -23 -27   9   20.80   11.70
 -23  27  -9   33.50   24.70
   9 -27  23   33.50   10.30
 -27  23 -11  -11.20   25.90
 -11  23  27   -2.30   12.20
 -23  11 -27   21.70   64.49
 -11 -27  23    1.60    6.20
 -23  27  11   -1.60   14.90
  11 -23  27    6.20    6.70
  11  27  23    6.60   17.40
 -27 -11 -23   -5.80   31.80
 -27 -11  23    8.90   16.40
 -27  11 -23   25.70   49.60
 -23 -27  11    7.30   10.20
 -23  27 -11    2.00   34.60
 -11  27  23   -6.30   13.10
 -11 -23  27    9.60    7.90
 -11  23 -27   25.20   54.49
 -23 -11 -27    6.80   21.70
  11  23  27    3.60   15.50
 -11 -27 -23    7.00   11.90
  11 -27  23    1.70    5.90
 -25 -27  -1  310.17   37.70
 -25  27   1  283.57   42.30
  25   1  27  307.77   60.39
 -27 -25   1  224.98   38.20
  25 -27   1  259.37   34.30
  -1  25  27  264.87   38.10
  -1  25 -27  196.78   60.89
 -25  27  -1  188.08   41.90
  25 -27  -1  312.67   35.60
  -1  27  25  252.47   37.80
 -25 -27   1  232.28   35.60
   1  25  27  311.67   40.10
  27 -25   1  272.97   35.00
  -3  27 -25   77.19   42.80
 -27  25  -3   33.30   23.40
   3  27  25   64.59   18.60
 -25  27   3    5.10   14.90
  27 -25  -3   24.30   10.40
  25 -27   3   27.60   10.80
  -3  25  27   36.60   15.30
  -3 -27  25   21.40    8.50
  -3  25 -27    5.30   39.20
   3  25  27   56.29   17.60
  25 -27  -3   30.70   12.50
  -3  27  25   37.20   15.50
 -25 -27   3   20.50   11.60
 -25  27  -3   49.99   22.00
  27 -25   3   35.20   12.40
  25 -27   5   30.20   12.40
  -5 -25 -27   30.10   14.10
  27 -25  -5   22.10   10.40
 -25  27   5   42.90   18.40
 -25   5 -27  -27.40   48.30
   5  27  25   24.30   20.40
  -5  27 -25   24.50   36.80
  -5  25  27   47.20   16.00
   5 -25  27   35.00   11.00
 -27  25  -5   20.10   23.70
 -25  27  -5   29.80   27.30
 -25 -27   5   59.99   16.40
  25 -27  -5   43.20   12.80
  -5 -27 -25    9.00   12.80
  -5  25 -27   17.10   48.90
  -5  27  25   21.00   14.70
  -5 -25  27    9.40    8.80
   5  25  27   19.50   15.40
  27 -25   5   38.30   12.40
   0 -28   0  282.67   33.40
   0   0  28  343.97   39.90
   0  28   0  238.38   39.30
 -28   0   2   -1.60   32.90
  -2  28   0   11.70   14.40
   0  -2  28    9.20   12.20
   0   2  28   10.50   11.40
   2  28   0    4.90   13.00
   2   0  28   10.80   11.60
   0 -28   2    4.80    5.60
   0  28  -2    8.90   14.20
   0  28   2    5.60   12.20
  -2   0  28   13.00   12.30
   0 -28  -2   12.60    6.70
 -28  -2   0   13.90   35.10
  -2   2  28    9.80   10.50
  -2  28   2    2.80   12.60
   2 -28  -2    4.50    6.10
   2  -2  28   -2.10    8.90
  -2  28  -2    0.10   13.80
  -2 -28   2    1.80    5.00
  -2  -2  28    3.10   10.20
 -28  -2   2   12.20   35.90
 -28   2  -2   10.90   35.80
  -2 -28  -2    0.70    5.00
   2  28  -2    7.30   13.50
   2  28   2    5.40   11.10
   2   2  28    3.30   11.00
   0  -4  28  160.08   27.40
   0   4  28  151.38   26.40
  -4  28   0  212.28   32.60
   0  28   4  216.38   27.80
   4   0  28  169.98   27.90
   0 -28  -4  172.78   22.70
 -28  -4   0  140.99   51.79
  -4   0  28  168.28   28.40
 -28   0   4  120.69   49.50
 -28   0  -4  120.49   50.29
   4  28   0  164.28   29.00
  -2   4  28  313.37   40.10
  -4  28   2  321.87   42.50
  -4  -2  28  345.17   42.00
 -28   2   4  464.15   77.79
   4  28  -2  373.36   42.90
   4   2  28  345.37   40.90
   2  28   4  275.47   39.80
 -28  -2  -4  182.48   62.99
  -4 -28  -2  304.57   35.00
   2  -4  28  304.37   40.50
  -2  -4  28  339.77   41.10
  -4 -28   2  246.88   34.00
   4  28   2  297.67   39.90
 -28   4   2  182.88   61.49
   2  28  -4  340.97   44.80
  -4   2  28  290.17   40.20
   2   4  28  285.47   39.00
   4  -2  28  324.97   40.50
   4   4  28  838.52  102.29
   4  -4  28 1056.29  104.19
  -4   4  28 1007.90  103.39
  -4 -28  -4  888.21   99.19
   4  28   4 1014.00  103.49
   4 -28  -4  872.41   99.29
  -4  -4  28 1011.10  104.39
 -28  -6   0   12.10   31.20
 -28   0  -6   16.20   34.20
  -6 -28   0    6.50    5.60
  -6  28   0   11.40   14.80
   0 -28  -6    6.70    6.70
  -6   0  28    8.00   13.30
   6   0  28    9.40   12.10
   0  28  -6   23.30   17.50
   0  28   6    9.40   11.80
   6  28   0   10.20   11.20
   0  -6  28    2.20   11.30
   0 -28   6    8.20    6.10
   0   6  28    3.20   10.70
  -2   6  28  100.09   21.20
  -6  28   2   87.39   25.30
  -2  28  -6  116.89   28.30
 -28  -6   2   43.00   36.70
  -6  -2  28   80.89   22.90
   2 -28  -6   82.39   14.30
   2  -6  28   77.89   19.90
   6   2  28   92.39   21.70
  -6 -28   2   65.39   12.80
   2 -28   6   95.89   14.10
 -28  -2   6  109.09   44.90
   6  -2  28   92.59   21.40
  -2  -6  28  100.89   22.40
  -2  28   6   53.39   17.20
 -28  -6  -2   78.49   42.30
   6  28   2   80.49   20.40
   2  28  -6  100.99   30.20
   2   6  28   71.29   20.30
  -6   2  28   85.49   21.70
   6 -28   4  542.05   64.29
  -4   6  28  487.45   67.69
   4  -6  28  650.33   70.29
   4  28   6  588.44   69.09
   6   4  28  507.45   67.69
  -6  28   4  510.55   69.29
 -28  -4  -6  614.34   94.89
  -4  -6  28  659.93   71.59
  -6   4  28  706.33   70.29
  -4  28   6  661.03   68.79
 -28  -4   6  483.45   89.19
   4  28  -6  695.33   74.99
   4   6  28  606.74   68.59
  -6  28  -4  630.94   73.89
   6  -4  28  661.23   69.89
 -28  -6  -4  704.73   95.89
   6  28  -6  443.16   56.09
  -6  -6  28  360.96   54.49
   6  -6  28  371.86   52.19
   6   6  28  465.35   51.89
  -6  -6 -28  461.85   49.30
  -6   6  28  365.56   51.39
  -6  28   6  500.15   52.29
   8 -28   0  280.27   33.80
  28  -8   0  316.77   35.00
   8   0  28  304.17   39.60
   0  -8  28  246.68   39.90
 -28   0  -8  202.28   62.99
  -8  28   0  361.36   45.30
   0   8  28  285.77   37.90
   8  28   0  271.27   39.70
   2  -8  28  141.49   26.60
 -28  -8   2  137.69   45.60
  -2 -28   8  127.89   16.90
   2  28   8  148.69   24.70
 -28   2   8   58.59   41.40
   8   2  28  107.59   24.20
  -2   8  28  115.19   22.60
   8  28  -2  132.79   26.00
  -8  -2  28  115.49   27.90
  -2  28  -8   85.59   26.90
  -8  28   2  149.09   28.60
   8 -28  -2  114.79   17.60
 -28  -2   8  164.98   50.39
   8  -2  28  116.89   22.70
  -8   2  28  114.29   26.70
   2  28  -8   79.39   25.60
  -2  -8  28  133.49   27.00
  28  -8   2  122.59   18.60
   2   8  28  110.89   24.00
  -2  28   8  157.28   26.30
   8  28  -4    0.80   13.30
  28  -4   8   22.10    8.00
   4  28   8   31.80   13.90
 -28   4   8   14.40   35.30
  -8 -28  -4    9.30    7.90
  -4   8  28   11.70   11.50
   4  -8  28   16.00   14.30
  -4  -8 -28   36.60   11.50
  -4  28  -8   -5.30   16.80
  -8  28   4   39.60   16.60
  -8  -4  28   23.00   15.40
   8   4  28   13.60   11.50
   8  28   4   15.30   11.80
   4  28  -8   31.10   19.60
   4   8  28   22.50   12.70
  -4  -8  28   15.70   14.90
  -8  28  -4   32.30   19.40
  -8  -4 -28   15.20   10.20
  -8   4  28   13.70   12.80
   8 -28  -4   28.00    8.80
  -4  28   8   18.30   12.80
   8  -4  28   15.20   11.80
  -6  -8 -28   10.50    8.40
  -6   8  28   18.10   11.80
 -28  -6  -8   38.40   35.80
  -8 -28  -6   20.00   16.40
  -6  28  -8   17.80   19.20
  -6 -28   8    6.90    6.20
   8   6  28   20.00   13.00
  -8  28   6   27.80   13.50
   6  28   8   16.40   12.10
   6  -8  28   22.90   14.30
   8 -28   6   15.60    7.00
 -28  -6   8    6.40   31.50
  -6  -8  28   16.30   16.10
  -8  -6 -28   -0.50    8.30
   6 -28   8   33.40    9.00
  -6 -28  -8   12.10   15.50
   8  28   6   21.40   13.10
   6   8  28   14.70   12.60
  -8   6  28   15.20   13.50
 -28   8   6    3.20   35.90
  -6  28   8   -0.20   11.70
   8  -6  28   20.70   14.10
  -8  28  -6   -1.40   17.70
   6  28  -8    7.40   18.10
   8 -28  -6    6.30    6.80
 -28  -8  -6   26.60   32.20
   8   8  28  533.35   53.29
 -28  -8  -8  299.97   69.99
  -8  28   8  485.45   53.29
   8  -8  28  369.46   53.09
  -8   8  28  397.56   52.39
  -8  -8 -28  425.36   49.10
   0  28 -10   55.69   22.40
 -10   0  28   86.89   23.20
 -10  28   0   37.20   20.00
   0 -10  28   59.59   18.70
   0  10  28   82.79   19.70
   0  28  10   79.09   21.30
  10   0  28   80.69   20.60
 -28 -10   0   30.60   32.50
 -10 -28  -2   -0.50    5.50
  -2 -28  10    1.30    5.10
 -28  -2 -10  -22.80   32.80
  -2  28 -10  -14.30   15.50
  10   2  28   -4.50   11.10
  28  -2  10    0.00    3.80
   2 -10  28   -2.00   11.80
   2  28  10    4.50   10.90
 -10  28   2   -0.50   13.70
  -2  10  28    4.60   11.10
 -28 -10   2    2.50   27.20
  10  28   2    4.50   12.40
 -10  -2 -28    5.90    9.00
 -10  28  -2   -4.80   16.40
   2  28 -10   -7.00   17.10
  -2  28  10   10.10   12.00
 -10 -28   2   -1.80    6.30
  -2 -10  28   -1.70   13.70
 -28  -2  10    6.90   30.00
   2 -28  10    1.50    5.40
 -28 -10  -2  -12.90   27.80
   2  10  28    2.00   11.20
  10 -28  -2   -0.50    4.90
  10  -2  28   -0.50   10.10
 -10   2  28    4.60   14.70
   4 -10  28  168.58   31.50
  -4  10  28  161.68   28.00
 -10  28   4  227.28   32.30
  10   4  28  172.88   29.60
 -10 -28  -4  158.18   23.20
   4  28  10  152.28   28.20
  -4 -10  28  185.28   34.30
  -4 -28 -10  234.78   32.60
   4  10  28  213.68   29.60
  28 -10   4  145.89   23.10
   4 -28  10  172.08   22.60
 -10  28  -4  181.08   37.50
  10 -28  -4  154.78   22.70
  10  -4  28  208.88   30.60
 -10   4  28  175.08   30.80
  -6  28 -10   39.80   22.20
   6 -10  28   63.39   19.80
 -28  -6 -10   58.49   39.60
 -28   6  10   45.30   43.00
  10   6  28   75.79   21.50
 -10  28   6   53.79   17.30
   6  28  10   78.59   19.60
  -6  10  28   48.80   16.40
  28  -6  10   87.39   14.60
 -10   6  28   86.19   25.10
  28 -10   6  100.59   16.10
 -28 -10  -6   54.29   36.60
  10  -6  28   84.79   22.60
 -10  28  -6   76.59   25.50
  -6  28  10   78.99   21.80
 -10  -6 -28  104.79   18.30
  -6 -10  28   96.09   25.70
   6  28 -10   80.09   28.30
   6  10  28   56.69   17.60
  10 -28  -6   95.99   15.20
  10  28   6   94.29   22.50
 -28  -8 -10   76.79   39.00
  -8 -10 -28   23.10   10.90
  -8  10  28   70.89   17.10
 -10 -28  -8   27.90   18.20
 -28 -10   8   48.30   30.80
   8 -10  28   57.09   18.60
   8  28  10   17.30   12.20
  -8  28 -10   38.60   22.00
  10   8  28   69.39   20.10
 -10  28   8   64.79   25.00
  -8 -28 -10   62.39   20.80
  28 -10   8   38.30   10.90
  10  28   8   43.90   14.70
 -28  10   8    8.60   36.90
   8  10  28   79.29   20.20
 -28  -8  10   14.30   29.90
 -10  28  -8   48.50   22.00
  10  -8  28   48.50   17.20
 -10  -8 -28   32.10   11.90
 -10   8  28   44.20   16.10
 -28 -10  -8    2.10   30.50
  28 -10  10    4.20    7.60
 -28  10  10    0.80   36.50
 -10 -28 -10    1.20   15.70
 -10 -28  10   -3.40    6.10
 -10 -10 -28   -0.10    8.30
  10  28  10   -0.10   11.70
 -28 -10 -10    6.00   31.40
 -10  10  28    9.20   13.00
 -10  28 -10   -7.40   18.10
 -10  28  10    2.90   12.20
  10 -10  28   -4.10   10.80
  10  10  28   -0.90   10.30
   0  28 -12    9.90   19.40
   0  28  12   14.60   12.50
  12   0  28    7.10   12.40
   0  12  28   17.70   12.60
 -12 -28   0    6.40    7.70
 -28   0  12   13.50   34.00
 -28 -12   0   -6.30   25.60
 -12  28   0   12.20   16.40
   0 -12  28   14.70   15.20
  12 -28   0   28.30    9.10
   0 -28  12   17.90    7.10
 -12   0 -28   -3.20   10.40
   2 -12  28  193.28   32.00
 -28   2  12  182.78   53.59
 -28  -2 -12  134.59   52.49
  12   2  28  172.38   28.20
   2  28  12  128.69   27.10
 -12  28   2  116.59   30.40
  -2  28 -12  239.08   38.40
 -28 -12   2  196.08   46.20
 -12  -2 -28  192.28   26.70
 -12 -28   2  131.79   22.60
  -2 -12  28  211.88   34.80
  12 -28  -2  180.58   22.60
  12  -2  28  176.18   29.40
   2  12  28  190.08   28.30
  -2  28  12  207.08   29.00
   2 -28  12  149.39   21.20
 -12  28  -2  124.19   34.20
 -28  -2  12  125.59   45.70
  12   4  28  705.93   70.39
 -28  -4 -12  556.54   94.59
   4 -28  12  598.04   64.09
 -28  -4  12  569.14   87.59
  -4  28  12  552.44   67.69
   4  12  28  637.64   68.89
 -12 -28   4  543.95   65.19
   6 -12  28  326.67   64.19
  28  -6  12  430.96   49.99
 -28  -6 -12  538.75   84.09
  -6 -28  12  482.95   50.39
  -6  12  28  452.35   53.19
 -12 -28   6  391.76   49.80
 -12   6  28  481.05   58.19
 -12  28  -6  532.45   81.39
  12 -28   8   29.70    9.80
 -28   8  12   13.00   38.10
 -28 -12   8   68.89   30.80
 -12  28   8   81.89   21.80
  -8  28 -12   36.20   23.70
   8 -12  28   48.80   18.60
 -28  -8 -12   -6.20   34.80
  12   8  28   32.60   15.40
  -8 -12 -28   68.39   15.10
   8  28  12   41.70   14.60
 -12  -8 -28   30.30   18.40
   8  12  28   44.80   16.50
 -12   8  28   47.80   16.80
  28 -12   8   46.50   13.00
  -8  28  12   49.40   16.40
  12  -8  28   36.10   16.50
 -28 -12  -8   26.70   33.30
 -28 -10 -12  263.17   60.59
 -12  28  10  103.69   25.70
 -28  10  12  189.78   59.79
 -10 -12 -28  153.38   23.10
  12 -10  28  201.68   30.80
  10 -28  12  155.28   20.10
 -28 -10  12   93.19   35.50
 -12 -10 -28  123.99   23.60
 -12  28  12  427.96   59.39
 -12  12  28  565.34   62.59
  12  12  28  551.84   60.89
   0 -28 -14    0.60   10.70
   0  28 -14    9.00   18.70
   0  28  14    8.30   12.50
   0 -28  14   -3.30    5.20
 -14   0 -28   -2.80   10.70
   0  14  28    6.70   11.00
  14   0  28    2.00   13.20
 -28   0  14    2.40   30.20
 -14 -28   0    6.40    7.80
 -14  28   0   -6.90   15.80
 -28   0 -14  -45.00   32.10
 -14  28   2   40.30   18.50
  14   2  28   60.49   17.00
  -2  14  28   38.80   14.20
 -28 -14   2    8.70   24.40
   2  28  14   11.90   15.60
 -14 -28  -2   17.60    9.80
 -28  -2 -14   25.10   38.50
  14 -28   2   22.10    8.70
  -2  28 -14   33.40   23.10
   2  28 -14   72.99   24.70
   2  14  28   74.29   17.70
 -14  28  -2   52.19   22.80
  14 -28  -2   29.70    9.90
 -14  -2 -28   51.19   14.20
  14  -2  28   38.80   16.00
 -28 -14  -2   57.49   31.10
 -28  -2  14   32.20   35.70
  28 -14   2   46.00   12.80
 -28  -4 -14  338.77   78.99
  -4  14  28  477.45   51.99
  14   4  28  472.45   53.09
  28  -4  14  482.35   48.50
 -28  -4  14  374.26   69.09
   4  28 -14  361.86   60.89
  -4 -14  28  356.76   47.20
 -28  -6 -14  214.98   62.09
  14   6  28  183.88   31.10
   6  28  14  240.08   31.00
  28 -14  -6  147.79   24.20
  -6  14  28  160.68   30.10
  -6 -28  14  197.48   23.70
 -14 -28   6  234.18   26.40
 -28  -6  14  136.89   44.30
  14 -28  -6  161.38   25.50
  -6  28  14  182.68   30.50
 -28 -14  -6  175.38   48.30
  14  -6  28  207.78   33.00
 -28   8  14   22.50   37.80
  -8 -28  14   -3.00    5.50
 -14  28   8    4.00   12.00
 -28 -14   8   -5.70   22.20
  -8  14  28   -3.20   10.90
  14   8  28   -5.00   10.60
  -8 -14 -28    0.50    8.30
  28 -14  -8   -0.20    4.30
  -8  28 -14   -2.30   21.60
  28  -8  14   -2.30    5.80
   8  28  14   -2.90   11.10
  -8 -14  28    1.20    7.00
  14  -8  28   -3.20   12.70
 -14  28  -8   13.70   21.10
   8  14  28   -7.00   10.80
  -8  28  14   -0.90   11.30
  -8 -28 -14    4.00   13.50
 -14 -28   8   -0.40    6.40
 -14  -8 -28   -4.60   15.00
  28 -14   8    1.70    7.40
 -10  28 -14   82.79   30.50
 -10  14  28   78.29   23.10
 -28  10  14   35.30   41.00
  14  10  28  104.39   23.40
 -10 -28  14   85.79   15.00
 -14  28  10  104.89   23.00
 -10 -14 -28   85.59   18.10
  28 -10  14   84.39   16.10
  10  28  14  101.69   23.20
 -10 -14  28   58.19   15.70
 -28  14  10   59.59   44.60
  14 -10  28   55.39   20.10
  10  14  28  105.59   23.20
 -14  28 -10   32.40   24.80
 -10 -28 -14   99.39   23.80
  14 -28  12  463.65   46.40
 -12  14  28  458.05   52.39
  14  12  28  450.75   52.49
 -28 -14  12  410.76   60.99
 -14 -28 -12  327.87   54.49
 -12  28  14  402.06   50.39
 -14  28 -12  523.15   66.29
 -28 -12  14  360.06   59.89
  12  14  28  379.66   50.99
 -28  14  12  264.57   80.09
 -28  14  14   60.89   49.30
 -14 -28  14  141.29   21.20
  14  14  28  162.58   27.20
 -14  14 -28  174.78   53.99
 -28  14 -14  137.79   45.60
 -14  14  28   99.89   28.80
 -14  28 -14  228.28   46.70
 -28   0 -16   15.60   45.40
   0 -16  28  127.59   17.80
   0  28 -16   84.39   29.80
   0  16  28  105.89   22.30
 -16  28   0  146.39   30.20
 -16 -28   0  113.59   18.70
   0 -28 -16   96.59   22.10
  16   0  28  118.99   24.70
  28 -16   0   79.99   16.70
   0  16 -28   99.59   43.60
  16 -28   0   88.79   16.60
   0 -28  16   86.09   15.10
   2  16 -28   -5.00   47.60
  -2  28 -16   26.20   23.90
 -16 -28  -2    3.20    9.80
 -28  -2 -16  -29.90   39.00
  16 -28   2   12.40    7.30
   2 -16  28   22.40    8.30
 -16  28   2   15.40   16.50
  -2  16  28    4.90   10.70
   2  28  16    0.20   11.40
 -28 -16   2    7.70   23.00
 -28   2  16   23.60   31.80
  16   2  28    8.10   12.90
   2  28 -16   17.00   33.20
 -16  28  -2   10.70   19.10
  16 -28  -2    8.80    7.90
   2  16  28    5.90   11.50
  16  -2  28   19.30   14.50
 -28  -2  16   13.00   28.50
  -2  16 -28   24.40   36.90
 -28 -16  -2   26.60   26.50
 -16 -28   2    8.70    8.30
  -2  28  16   11.50   11.90
  -2 -16  28    5.90    7.40
  -2 -28 -16    8.40   10.30
   4 -16  28   90.09   14.80
 -28 -16   4   27.00   24.60
  -4  28 -16  149.99   35.60
   4  28  16   75.29   20.40
  28  -4  16   54.99   13.90
  16   4  28   51.29   17.60
  -4 -28  16   74.49   12.60
  16 -28   4   53.89   13.20
 -28   4  16   25.80   37.80
 -16  28   4   80.79   23.80
   4  16 -28   34.60   63.79
  -4 -16 -28   89.99   17.40
  28 -16   4   85.69   16.90
  16  -4  28   85.69   23.90
 -28 -16  -4   25.70   27.90
   4 -28  16   88.19   13.30
 -16  28  -4  122.49   33.40
  -4  16 -28   98.29   44.50
 -16 -28   4   83.29   16.00
   4  16  28   76.09   21.60
  -6 -28  16   30.60    8.90
  16   6  28   42.20   15.60
  -6  16  28   22.80   12.50
  -6  28 -16   29.00   25.00
  28 -16  -6   26.10    9.80
  28  -6  16   30.10    9.40
  -6 -16 -28   14.60    9.70
 -16  28   6   33.70   14.30
 -28   6  16    8.90   36.50
   6  28  16   24.00   13.60
 -28 -16  -6    2.30   25.80
  -6  28  16    4.00   12.00
   6  16  28   38.80   15.40
  -6 -28 -16   12.40   12.10
  16 -28  -6   23.70   10.60
  -6 -16  28   33.20   10.30
  -6  16 -28   26.40   38.40
  16  -6  28   30.40   16.60
 -16  28  -6   22.90   22.40
  16   8  28  152.38   30.40
  -8  28 -16  230.78   45.90
  16 -28   8  161.58   22.40
 -16  28   8  161.58   28.20
   8  28  16  223.48   30.30
  28  -8  16  198.88   24.30
 -16 -28   8  182.38   24.40
   8  16  28  116.69   27.40
  28 -16   8  136.59   24.30
  16  -8  28  174.98   31.70
  -8  16 -28   72.89   46.30
  -8  28  16  196.68   30.00
  28 -10  16   24.90    9.60
 -10 -16 -28   19.50   10.60
  16  10  28   22.80   14.50
 -28 -16  10   -0.40   19.30
 -10  16  28   36.20   14.40
  16 -28  10   29.70    9.10
  10  28  16   22.40   13.70
 -28  10  16   -5.10   38.40
 -16  28  10   28.60   15.00
 -10  28 -16   16.40   25.20
  10  16  28   33.70   15.80
 -28 -10  16   14.60   23.80
 -10 -28 -16   42.60   17.70
  28 -16  10   26.10   10.80
 -10  16 -28    7.90   37.20
 -10  28  16   42.30   15.70
 -16 -10 -28   20.70   12.00
 -16  28 -10   14.30   22.20
  12  28  16   38.80   15.40
 -16  12 -28   84.19   45.20
  16 -28  12   50.89   11.10
 -28  16 -12   68.59   37.40
  16  12  28   59.59   17.80
 -16  28  12   24.20   13.50
 -12  28 -16    9.20   25.50
 -28 -16  12   54.99   23.10
  28 -12  16   62.09   13.90
 -16 -28 -12   57.09   20.70
 -12  16  28   35.50   15.10
 -12 -16  28   30.30   11.50
 -28  16  12   -3.40   42.40
 -28 -12  16   46.70   24.60
 -28  12 -16  100.99   52.79
  12  16  28   53.19   18.00
 -12  28  16   42.20   16.10
  28 -16  12   47.60   13.30
 -16  28 -12   67.59   28.60
 -16 -12 -28   30.80   12.90
  12 -28  16   62.69   10.70
 -12  16 -28  -13.00   36.40
 -12 -28 -16   21.00   16.30
 -16 -28 -14    1.10   15.60
  28 -14  16   -7.00    6.80
 -14  16  28   -5.50   12.70
 -28  16 -14   15.40   35.00
 -28 -16  14   -0.40   16.50
 -16  28  14   -7.80   10.50
 -14 -16 -28   -0.50    9.00
 -16  14 -28    5.50   38.10
  16  14  28   -8.50   13.20
  16 -28  14    5.60    5.90
 -14  28 -16    5.70   25.20
 -14  16 -28    9.70   39.40
 -16 -14 -28    0.00   10.10
 -14 -16  28    2.40   10.00
  14  16  28   -9.90   11.30
 -14  28  16   -0.90   12.00
  14 -28  16    0.10    4.80
 -16 -28  14   -4.80    7.00
 -14 -28 -16   -0.80   14.80
 -16  28 -14  -14.70   22.40
  28 -16  14   -2.50    7.40
 -16 -28 -16   50.09   21.50
  16  16  28   96.69   23.60
 -16  28 -16   98.39   33.30
  28 -16  16   66.89   15.50
 -28  16 -16   34.00   38.30
 -16  28  16   29.90   15.70
 -16  16 -28  123.19   48.80
 -28 -16  16   47.80   21.10
   0  28  18   44.80   16.60
 -28   0  18   21.00   32.70
  28 -18   0   77.99   15.50
  18   0  28   77.99   23.20
 -18 -28   0   84.79   17.10
   0  28 -18   86.39   32.10
  18 -28   0   77.89   14.90
   0 -28 -18   54.89   16.70
   0  18  28   53.19   17.00
 -18  28   0  111.09   28.10
   0  18 -28   42.30   41.10
 -28 -18   0   38.80   24.30
 -28   2  18   14.80   31.20
  -2 -28  18    5.50    6.30
 -28 -18   2   25.00   22.20
   2  18 -28  -33.70   37.90
 -18  28   2    5.40   15.10
  -2  18  28    3.70   11.50
   2 -18  28   -2.00    6.30
  -2  28 -18   -4.70   22.00
  28 -18  -2   10.50    7.90
 -18 -28  -2   -1.60    9.20
   2  28  18    6.60   12.30
  18 -28   2   20.20    9.40
  18   2  28   12.00   13.80
 -28  -2  18   26.90   28.70
  18  -2  28   -5.70   13.70
  -2 -18  28   -0.60    6.00
  -2  28  18   11.00   12.80
  -2  18 -28   11.50   38.70
 -28 -18  -2    7.50   22.50
   2  28 -18   30.70   27.50
  28 -18   2    5.90    7.80
  -2 -28 -18    3.20   10.40
 -18  28  -2   31.60   19.70
   2  18  28   12.80   12.30
 -28   4  18  103.19   43.90
  18   4  28   84.09   24.90
   4  28  18  109.39   22.50
 -18  28   4   82.89   21.80
  28 -18  -4   73.19   15.70
  -4  28 -18   70.39   31.20
  -4  18  28   84.89   21.00
   4 -18  28   65.89   14.50
  18 -28   4   98.89   16.30
  18  -4  28  126.79   26.50
  28 -18   4   97.79   18.20
   4  18  28  113.29   22.70
 -18  28  -4   36.60   23.20
  -4  18 -28   70.79   42.80
  -4 -18  28   93.69   16.00
 -28   6  18   23.40   38.70
  18   6  28    8.60   12.40
  -6  18  28   11.60   10.60
 -18  28   6   18.50   12.70
  28 -18  -6   15.60    8.70
  -6  28 -18   -2.20   25.50
   6 -18  28    9.10    6.90
 -28 -18   6   -4.80   18.30
  28  -6  18   12.40    7.80
  -6 -18 -28   18.40    9.60
  18 -28   6   23.40    9.20
   6  28  18    5.30   11.40
 -18  28  -6    6.80   21.20
  18  -6  28    7.00   14.40
  -6  18 -28   32.30   39.80
  18 -28  -6   10.90    9.40
 -18  -6 -28    6.70   10.70
 -28 -18  -6   20.10   23.40
  -6  28  18   10.30   12.60
   6 -28  18    9.60    6.50
 -28  -6  18  -16.90   20.60
  -6 -18  28    2.40    6.80
   6  18  28   21.00   13.50
  -6 -28 -18   10.40   11.30
   8  28  18  198.98   28.30
 -28 -18   8  173.68   35.00
  -8 -28  18  147.09   20.10
 -28  18  -8   86.09   40.30
   8 -18  28  166.48   21.70
  18   8  28  182.28   30.20
  -8  18  28  143.09   25.60
  28 -18   8  125.79   22.50
  -8  18 -28  118.19   48.10
 -18  28  -8  160.68   38.70
  -8 -28 -18  140.69   25.90
   8  18  28  161.88   28.10
  18  -8  28  120.79   31.00
 -18  -8 -28  134.29   24.80
  18  10  28   27.10   15.10
 -10  28 -18   11.90   27.40
 -10  18  28   23.70   12.80
 -10 -18 -28   26.20   11.10
 -18  28  10   11.50   13.80
  28 -10  18   27.80    9.90
  10  28  18   15.80   13.30
 -10 -28 -18   11.90   13.70
 -10  28  18   24.70   13.80
 -18  28 -10   34.80   23.80
  28 -18  10   42.40   12.80
 -18 -28  10   10.00    8.60
  10  18  28   36.50   14.80
 -18 -10 -28   35.20   13.60
 -10 -18  28   19.20    8.80
 -10  18 -28   82.39   43.90
 -28 -10  18   31.10   23.10
 -12 -18 -28   33.50   12.50
  12  28  18   33.30   14.90
  18  12  28   34.80   15.80
 -12  18  28   27.10   14.20
 -12  28 -18   15.50   27.90
  18 -28  12   20.20    8.60
  28 -12  18   41.30   12.70
 -28 -18  12   -0.40   15.70
 -18  12 -28   63.39   45.60
 -28  18 -12   10.40   32.20
 -18  28  12   32.00   13.60
 -18  28 -12   35.50   25.60
 -12  28  18   52.39   15.60
 -12  18 -28   14.30   37.10
  12  18  28   51.09   17.20
 -28 -12  18   41.30   21.50
  12 -28  18   31.90    8.70
 -18 -28  12   16.20    9.10
 -12 -28 -18   35.30   15.90
 -18 -12 -28   15.00   11.90
 -18 -28 -14   24.30   17.80
 -18  28  14   10.10   12.70
  18 -28  14    1.90    5.70
  18  14  28    3.50   14.90
 -28 -18  14   -4.40   15.20
 -14  18  28    0.30   14.10
 -14 -28  18   10.10    7.90
 -28  18 -14   13.90   32.50
 -14 -18 -28    3.20   10.20
 -14  28 -18   36.70   31.70
  28 -14  18   13.80    9.60
 -18  14 -28   -6.10   39.30
 -14  28  18   -3.20   11.90
  28 -18  14    1.20    8.00
 -18 -14 -28    3.40   11.30
  14 -28  18   10.80    6.30
  14  18  28   10.10   14.30
 -14  18 -28   19.00   40.20
 -14 -28 -18   14.60   15.60
 -28  14 -18    9.30   42.00
 -18  28 -14   13.30   25.20
 -14 -18  28    4.80    9.10
 -18  16 -28   -2.30   40.50
  18  16  28   15.70   15.90
 -18 -28 -16    6.90   17.50
 -28 -18  16    5.70   14.10
 -28  18 -16   52.09   40.20
 -16  28 -18   21.60   29.80
 -18  28  16   11.20   13.70
  16  18  28   10.00   14.50
 -18 -16 -28   11.50   12.10
 -28  16 -18   54.09   42.40
  16 -28  18    6.80    6.20
 -16 -18  28   14.40   11.10
 -16 -28 -18   41.30   18.60
 -18 -28  16   19.30    9.40
 -16  18 -28   14.00   38.90
 -16  28  18   21.20   13.80
 -18  28 -16   15.80   27.30
  20   0  28   52.69   20.00
 -20 -28   0   24.20   11.00
   0  20 -28    2.80   38.80
   0  20  28   35.60   14.30
  20 -28   0   42.10   12.10
   0 -20  28   44.60   11.60
 -28   0  20   10.30   30.00
  28 -20   0   72.49   14.50
   0  28 -20   -3.00   27.40
 -28 -20   0   23.60   21.10
 -20  28   0   46.40   20.50
   2  20 -28  115.49   51.99
 -20 -28  -2  175.18   27.10
  20   2  28  167.88   32.70
  -2  20  28  163.68   28.10
  -2  28 -20  169.88   46.80
 -20  28   2  138.49   31.10
 -20  28  -2  145.79   34.80
   2 -28  20  201.38   23.10
  -2 -28 -20  148.89   25.90
  20 -28  -2  185.28   25.40
  20  -2  28  212.28   34.50
 -28  -4 -20  253.87   57.39
   4 -20  28  342.87   39.60
  28 -20  -4  304.67   39.90
  -4 -20 -28  401.46   41.40
   4 -28  20  313.67   38.60
  -4  28  20  387.46   45.30
  -4  20 -28  219.38   69.89
  20  -4  28  419.76   49.00
  -6  20  28  169.58   26.30
   6  28  20  130.19   28.00
 -20  28   6  186.38   28.90
 -28 -20   6  132.49   32.80
  -6 -20 -28  108.39   22.20
  20 -28   6  148.39   22.10
  20   6  28  152.98   30.80
  28 -20  -6  146.29   22.00
 -20 -28   6  195.58   24.60
 -20  28  -6  144.79   39.60
   6  20  28  164.88   27.70
  -6 -20  28  148.59   21.40
  -6  20 -28   70.09   44.20
  -6  28  20  196.68   28.60
  20  -6  28  145.59   31.70
  20 -28  -6  149.39   23.80
 -28  -6  20  128.19   38.00
  -8  20  28   -1.70   10.10
  20   8  28   -2.80   13.60
  28 -20  -8    1.30    6.20
 -28 -20   8    5.80   15.60
  20 -28   8   -1.70    6.50
  -8  28 -20  -11.80   25.90
  -8 -20 -28   -0.50    8.40
   8 -20  28   -6.10    5.20
  -8 -28  20    2.20    5.90
   8  28  20    1.40   12.70
 -20  28   8   -4.70   11.90
   8 -28  20   -1.00    5.00
 -20  -8 -28    3.80   11.50
  -8 -20  28    1.10    6.80
  -8  28  20  -15.00   10.80
  28 -20   8    2.40    8.00
   8  20  28   -2.10   12.10
 -28  -8  20   23.00   22.90
 -20  28  -8   14.70   21.80
  -8 -28 -20    5.70   10.50
  -8  20 -28   11.00   35.80
 -20 -28   8   -4.10    7.50
  20  10  28   52.69   18.30
 -20  10 -28  101.59   50.09
  10  28  20   83.59   20.40
 -10 -20 -28   38.20   15.50
  28 -10  20   61.59   14.80
 -10  20  28   43.80   15.20
 -28  20 -10   14.30   29.70
  10 -20  28   69.79   13.10
 -10  20 -28   12.10   37.90
 -10 -20  28   69.39   13.90
 -10  28  20   66.79   19.00
 -20 -10 -28   51.59   16.60
  10  20  28   53.49   17.30
 -20  28 -10   54.29   28.30
 -10 -28 -20   55.09   17.10
  12  28  20  260.67   41.30
 -20  28  12  311.17   39.30
 -12  28 -20  221.48   56.69
 -12  20  28  307.17   39.50
  20  12  28  283.97   42.10
 -28  12 -20  406.06   85.69
 -12  20 -28  301.37   71.69
 -20 -12 -28  268.67   37.50
  28 -20  12  253.47   34.40
  12  20  28  292.07   40.50
 -20  28 -12  182.48   49.20
 -20  28  14  153.28   31.30
  20  14  28  199.88   34.50
 -28  20 -14  185.08   47.50
  28 -14  20  158.68   22.60
 -14  20  28  230.28   45.00
 -14  28 -20   94.39   60.59
 -20 -28 -14  158.08   39.70
 -20  14 -28  142.49   82.49
  14  20  28  175.48   34.60
 -20 -14 -28  100.99   28.00
 -14  20 -28  107.79   50.79
  14 -28  20  115.39   18.90
 -14 -28 -20  148.09   40.80
 -28  14 -20  194.38   57.89
   0  22 -28   36.00   41.30
  22   0  28   35.30   17.90
 -22  28   0   48.90   19.30
  28 -22   0   48.60   14.20
 -28 -22   0   10.70   17.70
  22 -28   0   48.70   13.60
   0  28  22   45.30   16.00
   0  22  28   50.69   16.60
  22   2  28  188.08   35.70
   2 -22  28  186.98   23.70
   2  28  22  128.19   28.30
  -2  22  28  231.18   30.60
 -28 -22   2  192.98   35.20
   2 -28  22  194.68   23.30
 -22 -28   2  166.08   26.20
 -28 -22  -2  196.78   37.00
  -2 -22  28  135.69   22.90
   2  22  28  176.38   30.70
  -2  28  22  154.48   34.80
  22  -2  28  152.08   33.20
  -4  28 -22  455.95   69.29
  22   4  28  389.76   54.89
  -4  22  28  467.55   51.79
 -22  28   4  368.76   51.29
  -4  28  22  471.75   53.09
  22 -28  -4  416.36   49.10
  22  -4  28  355.96   55.09
 -28  22  -6  159.58   57.59
  -6 -22 -28  129.99   24.70
 -22  28   6  161.28   30.70
  -6  28 -22  236.98   54.79
   6  28  22  190.58   30.30
  22   6  28  141.89   35.50
  -6  22  28  161.78   29.50
   6 -22  28  210.98   24.20
  -6 -28 -22  207.38   27.40
  28 -22   6  137.89   25.00
 -22  28  -6  126.69   35.50
  -6  28  22  228.08   31.10
   6  22  28  186.58   31.50
   6 -28  22  185.68   22.90
 -22   8 -28   10.70   42.70
   8  28  22    6.50   13.50
  -8  28 -22   11.90   32.10
 -28  -8 -22   13.10   19.40
  -8  22  28   -2.10   10.90
  -8 -28  22    1.40    6.30
   8 -22  28   -0.60    6.40
  28 -22  -8    3.10    7.90
 -22  28   8   -0.80   14.50
  22   8  28  -13.60   15.70
 -28  22  -8   31.30   28.10
  -8 -22 -28   -7.60    8.30
  -8 -28 -22   -5.90   10.30
   8 -28  22   -1.60    5.60
  -8  22 -28   18.80   41.90
 -22  28  -8  -19.50   21.10
  -8 -22  28    1.00    6.80
   8  22  28    0.90   12.90
 -28  -8  22   19.10   21.90
 -22 -28   8   -1.70    8.30
  -8  28  22   -1.10   12.40
 -22  -8 -28   -2.70   12.30
  10  28  22   30.70   16.20
 -28 -10 -22    7.40   20.10
 -28  22 -10   52.79   33.00
 -22  10 -28   54.79   49.30
 -22  28  10   64.99   18.60
  22 -28  10   53.79   13.80
 -10  28 -22   13.30   32.60
 -10  22  28   48.70   16.10
  10 -22  28   30.10    9.90
 -10 -22 -28   56.89   17.30
  28 -22  10   46.50   14.50
 -22  28 -10   20.70   24.50
 -10 -28 -22   45.00   14.90
  10 -28  22   54.49   11.10
 -10  22 -28   27.70   39.20
 -22 -10 -28   54.89   16.80
 -10  28  22   23.20   14.90
  10  22  28   67.79   19.50
  24   0  28   15.70   19.40
  28 -24   0   57.39   15.30
  24 -28   0   45.70   14.30
   0  28  24   43.50   16.30
   0 -28  24   46.80   11.90
 -24 -28   0   33.80   14.10
   0  24  28   20.90   14.50
  28 -24  -2   -1.00    8.60
   2 -24  28    0.50    6.40
 -24  28   2   12.70   17.00
   2  28  24   -2.50   12.40
  24   2  28    2.20   19.80
  -2  24  28    3.00   12.50
  -2  28 -24  -14.60   33.60
 -24  28  -2   -8.40   19.00
   2 -28  24    4.40    6.70
  -2 -24  28    0.60    7.10
  -2  24 -28  -33.00   36.20
 -28 -24  -2    5.20   16.70
  28 -24   2   -4.70    8.60
   2  24  28    3.00   13.90
  24 -28  -2    0.40    9.10
  24  -2  28   -6.10   18.50
  -2  28  24    5.00   13.40
 -24 -28   2   -3.70    8.90
  -4  28 -24   26.20   35.60
 -28 -24   4   51.89   18.60
   4  28  24   65.99   19.80
  -4  24  28   25.50   14.60
 -24  28   4   42.90   19.20
  24   4  28   19.30   20.10
  -4 -28  24   37.50   11.80
 -24 -28   4   28.60   12.20
  -4 -28 -24   66.49   19.10
  -4 -24  28   25.30    9.80
   4  24  28   40.50   17.00
  -4  28  24   64.49   20.60
  -4  24 -28   72.19   45.00
 -24  28  -4   81.69   29.30
 -29  -1   1   73.59   44.70
 -29   1  -1   37.10   41.60
  -1 -29   1   24.10    8.60
  -1  -1  29   47.80   15.80
  -1   1  29   54.99   16.40
  -1  29  -1   56.39   18.00
  -1  29   1   68.99   18.60
   1 -29  -1   36.10   10.20
   1  -1  29   40.10   15.30
   1   1  29   42.10   15.50
   1  29  -1   28.40   15.90
   1  29   1   73.99   18.80
 -29  -1  -3  113.69   50.99
  -3  -1  29  178.88   29.80
   3   1  29  216.98   30.30
  -3  29   1  186.58   31.00
   1  -3  29  228.88   30.10
 -29  -3   1  242.58   61.39
   1  29   3  146.79   27.90
   3 -29   1  212.38   24.20
   3  29   1  198.58   28.70
  -1  -3  29  188.98   30.10
   1  29  -3  125.59   30.20
 -29  -1   3  126.49   52.59
   3  -1  29  175.48   29.20
  -3   1  29  174.08   29.70
  -1 -29  -3  187.28   24.00
   1   3  29  174.78   29.10
  -1  29   3  190.28   29.00
 -29  -3  -1  102.19   48.00
   3 -29  -3  880.81   88.39
   3 -29   3  801.32   87.79
   3  -3  29  837.42   91.99
   3   3  29  855.41   92.09
   3  29  -3  932.31   94.79
   3  29   3  762.42   90.99
  -3  29   3  680.13   91.49
  -3  -3  29  926.81   93.29
  -3   3  29  853.51   92.39
 -29  -1  -5  131.59   55.19
   5 -29   1  230.88   28.50
   1 -29  -5  244.38   29.30
 -29   1   5  269.17   66.19
 -29  -5   1  174.98   55.79
  -5  -1  29  294.37   36.60
   1  -5  29  231.38   34.60
  -1   5  29  285.27   35.50
  -1  29  -5  157.78   37.00
   5   1  29  230.78   34.10
   1 -29   5  203.68   28.20
 -29   1  -5  163.38   56.79
   5  -1  29  269.27   34.80
  -5   1  29  251.97   36.50
   1   5  29  224.88   32.40
  -1  29   5  293.07   35.00
  -1  -5  29  213.08   34.60
   5  29   1  295.87   36.00
  -5  29  -1  280.07   39.00
  -5 -29   1  212.18   27.70
   5  29  -3  843.32  101.79
  -3  29  -5 1076.79  106.69
  -3   5  29  965.40  101.39
  -5  -3  29  866.51  101.89
  -5  29   3 1008.50  102.99
 -29   3   5  773.22  125.69
   5   3  29  928.81  101.49
   3  -5  29 1023.50  102.69
   3   5  29  886.41  100.69
  -3  -5  29  989.40  103.09
   5  -3  29  922.31  101.49
   5  29   3  845.72  100.59
   5  29  -5  976.00  116.19
  -5   5  29 1011.10  114.09
  -5  -5  29 1111.29  116.29
  -5  29   5 1132.59  113.79
  -7 -29  -1   -1.40    5.00
   1  -7  29    1.00   12.60
   1  29   7   -2.90   10.80
   7  29  -1   -1.60   12.70
 -29  -7   1    4.20   31.80
  -7  -1  29   10.20   13.40
  -7  29   1    2.20   14.20
  -1  29  -7    1.90   16.30
  -1   7  29    5.10   11.20
   7   1  29   -0.40   11.60
  29  -7  -1   -2.20    4.50
   7 -29   1   -0.20    5.60
   1   7  29   -1.50   10.50
   1 -29   7    1.00    5.40
   1  29  -7    5.40   17.00
  29  -7   1    3.00    5.50
  -1  -7  29   -1.10   12.90
   7  29   1   -2.00   11.70
   7  -1  29    4.90   11.40
   7 -29  -1   -0.80    5.40
  -1  29   7    7.60   11.60
  -7  29  -1   -3.70   14.50
  -7   1  29    4.20   12.70
   3  -7  29  409.36   46.10
   7  29  -3  291.67   42.70
   3  29   7  341.97   43.00
  -7  -3  29  287.77   44.50
   7   3  29  353.26   43.70
   3 -29   7  313.27   37.80
   3  29  -7  253.97   46.30
   7  -3  29  289.97   42.70
   3   7  29  361.06   43.40
  -7  29  -3  395.96   49.50
  -7   3  29  328.77   44.60
 -29  -3   7  354.16   68.99
   7  29   3  315.57   43.00
  -3  -7  29  383.26   46.60
   5  29   7  414.26   49.90
   5  -7  29  453.75   52.89
 -29  -7   5  302.07   68.59
  -5  29  -7  420.06   56.89
   7  29  -5  358.06   53.99
  -7  -5  29  510.85   56.39
   7   5  29  411.26   50.89
   5  29  -7  453.05   57.09
  -7  29  -5  362.86   54.99
  -5  29   7  449.66   51.29
   5   7  29  359.66   49.30
 -29  -7  -5  316.67   71.49
  -7   5  29  395.86   51.19
   7  -5  29  456.35   52.49
  -7  29  -7   22.60   20.30
 -29   7   7   55.99   44.70
  -7 -29   7   36.70    9.60
  -7  -7 -29   43.60   12.00
  -7  -7  29   23.30   18.10
  -7   7  29   23.90   14.40
   7  29   7   38.90   15.70
   7   7  29   19.10   13.40
   7  -7  29   20.40   14.50
  -7  29   7   48.40   15.90
  -9  -1  29  111.59   26.80
  -1   9  29   87.09   20.60
  -1  29  -9   89.09   27.20
   9   1  29  105.19   22.40
  -9 -29  -1   62.29   13.90
 -29   1   9  116.49   46.50
 -29  -1  -9   67.59   43.90
   1  -9  29   95.39   24.00
 -29  -9   1   93.29   39.30
   1  29   9   75.19   20.90
   1   9  29   83.89   20.80
  -1  -9  29   92.59   23.20
   9  29   1   59.89   19.60
   9  -1  29   92.89   20.80
  -9   1  29   93.49   25.60
  -9 -29   1   92.39   14.80
  -9  29  -1  104.59   27.50
 -29   1  -9   77.89   45.30
   1  29  -9  111.59   32.40
 -29  -9  -1  164.28   46.50
 -29  -3  -9   30.70   37.00
  -3  29  -9   38.20   20.80
   3  -9  29   38.30   16.90
  -9  29   3   63.99   18.50
   9 -29   3   46.20   10.20
   3  29   9   35.80   14.60
   9   3  29   40.10   14.80
  -3   9  29   25.30   13.80
 -29  -9  -3   47.60   36.00
  -3  -9  29   46.80   18.00
   3   9  29   25.00   14.00
   3 -29   9   53.89   10.60
  -3  29   9   28.10   14.20
  -9  29  -3   70.69   22.50
   3  29  -9   13.10   18.40
  29  -9   3   29.60   10.10
   9  -3  29   40.60   15.20
   9  29   3   58.89   17.20
  -9   3  29   54.29   18.80
  -9  -3 -29   13.60   10.90
  -5  29  -9   27.20   20.80
  -5 -29   9   58.09   10.10
  -5  -9 -29   21.50   10.60
  29  -5   9   46.80   11.60
  -5   9  29   48.30   15.70
 -29  -9   5   -7.20   27.50
   9 -29   5   39.60   10.50
  -9  29   5   53.19   19.30
   9   5  29   63.39   17.60
 -29  -5  -9   59.79   39.30
   5  29   9   74.79   19.20
   5  -9  29   48.20   17.20
 -29  -5   9   16.50   33.60
   9  -5  29   51.99   17.30
   9 -29  -5   32.30   10.30
   9  29   5   24.50   14.80
   5  29  -9   25.20   21.70
  -5  29   9   42.20   15.90
   5 -29   9   37.60   10.30
  -9  -5 -29   27.20   18.30
  -9  29  -5  100.79   28.20
  -5  -9  29   35.80   18.70
   5   9  29   40.90   14.80
  -9 -29   5   26.60    9.90
  -9   5  29   52.69   17.10
   9   7  29   16.50   15.60
  -9 -29  -7    1.00   17.30
 -29   7   9    4.70   38.50
   7  29   9    5.90   11.80
 -29  -7  -9   29.70   33.30
  29  -7   9   17.70    8.70
 -29  -9   7  -10.40   25.60
  -9  29   7   15.70   12.30
  -7   9  29    3.10   11.20
  -7 -29  -9    9.20   15.50
   7   9  29   11.50   12.40
  -7  29   9   10.80   12.50
 -29  -9  -7   -7.40   27.80
  -9  29  -7    7.80   18.60
  29  -9   7    5.80   10.50
   9  29   7    9.20   13.20
  -9  -7 -29    2.20    8.30
  -9   7  29    3.90   13.20
  -9 -29   7   21.20   10.50
   9  -7  29    6.60   13.50
  -9 -29   9  144.09   19.60
  -9  -9 -29  166.78   22.50
 -29  -9  -9  103.89   42.50
   9  -9  29  137.49   27.80
   9   9  29  115.99   25.20
  -9 -29  -9  129.69   32.90
   9  29   9  128.59   24.90
 -29   9   9  149.88   56.69
  -9  29  -9  122.49   34.70
  -9  29   9  110.39   25.20
  -9   9  29  116.39   25.40
  29  -9   9  143.29   20.30
  -1  29 -11    6.70   17.60
   1 -11  29    8.40   14.50
 -29 -11   1   -1.70   27.90
 -11  29   1    8.50   18.60
 -29  -1 -11   12.40   37.90
 -11 -29  -1   -1.00    6.30
   1  29  11    5.10   11.40
 -11 -29   1    4.30    7.50
 -29   1 -11   13.60   37.80
  -1  29  11    1.20   11.10
  -1 -11  29    3.70   15.30
 -11  -1 -29   24.10   11.80
 -11  29  -1    0.90   25.20
   1  29 -11   -6.70   17.10
 -29 -11  -1   -7.20   28.50
  -3  29 -11  238.88   49.40
   3  29  11  289.07   42.30
   3 -11  29  422.36   47.40
 -29 -11   3  254.57   74.19
  11 -29  -3  302.87   38.30
 -11 -29   3  362.26   40.00
   3  29 -11  303.77   52.09
  -3 -11  29  430.46   49.70
  -3  29  11  261.07   43.30
 -11  29  -3  354.06   50.19
  11  -3  29  418.26   47.00
 -29  -5 -11  347.97   74.59
  11  -5  29  497.35   52.89
  11 -29  -5  357.06   45.30
 -29 -11  -5  299.37   65.89
 -11  -5 -29  362.46   46.70
   5 -29  11  425.16   44.90
 -29  -5  11  360.26   69.69
  -5  29  11  476.25   50.99
  -7  11  29  169.98   30.50
   7 -11  29  205.48   33.60
  11 -29   7  215.28   25.70
  -7  29 -11  168.98   39.50
  11   7  29  178.58   31.70
 -11  29   7  194.38   30.50
   7  11  29  202.68   31.90
  -7  29  11  181.78   32.30
 -11   7  29  228.68   36.40
  -7 -29 -11  233.48   36.60
   7 -29  11  209.98   25.20
  11  -7  29  213.38   33.70
 -11  29  -7  213.68   41.00
  -9  29 -11   24.70   21.90
  -9 -11 -29   41.00   11.90
  29  -9  11   41.60   11.40
  -9  11  29   31.80   14.80
  11   9  29   43.20   16.10
 -11  29   9   25.60   14.60
 -29  -9 -11   16.60   35.30
   9 -11  29   31.30   16.40
 -11  29  -9   64.09   24.60
 -11  -9 -29   44.10   12.20
 -11   9  29    7.00   15.60
  -9 -29 -11   20.30   19.20
   9  11  29   26.50   13.90
  11  29   9   45.70   17.70
  -9  29  11   12.20   13.40
 -29  11   9   29.30   40.80
   9 -29  11   24.50    8.70
  11  -9  29   41.10   17.00
  11  11  29  303.97   39.20
 -11 -29  11  265.17   33.50
  11 -11  29  268.57   41.30
 -29   1  13  103.09   47.00
  13 -29   1  154.38   21.00
 -13 -29  -1  161.18   22.50
   1  29  13  105.19   25.20
  13   1  29  136.99   26.30
  -1  13  29  163.58   25.90
  -1 -29  13  164.48   20.00
  13  -1  29  157.08   27.30
  -1  29  13  120.19   25.20
  13 -29  -1  150.98   20.50
 -13 -29   1  193.38   23.10
   1  29 -13   85.89   29.90
 -13  -1 -29  112.39   24.20
 -29   1 -13   78.29   47.40
   1  13  29  138.79   26.10
 -29  -1  13   80.59   42.10
 -13  29   3  809.52   94.19
   3 -13  29  828.72   95.79
  13   3  29  883.91   93.39
  13 -29  -3  794.42   89.19
  -3  29  13  774.12   92.19
  13  -3  29  979.80   95.59
 -29  -3  13  910.11  113.99
 -29 -13  -3  786.42  107.79
 -29  -5 -13  886.71  136.89
  -5  29 -13 1099.89  120.59
   5 -13  29 1013.50  116.29
   5  29  13  969.10  112.69
 -13  29   5 1135.69  115.09
  13   5  29 1108.89  114.79
  13  -5  29 1027.90  115.29
   5  13  29 1207.68  114.69
  13 -29  -5  972.90  110.89
   5 -29  13 1004.40  109.49
 -13  29  -5 1156.68  120.69
  -7 -13 -29  475.85   49.70
  13   7  29  470.15   54.19
  -7  13  29  407.56   52.49
   7 -29  13  407.56   47.40
  -7 -29 -13  394.06   67.79
 -29 -13  -7  346.67   69.19
  13  -7  29  469.15   55.19
  -9  13  29  156.48   27.70
 -29   9  13   79.29   48.60
   9  29  13  127.39   27.00
 -13 -29  -9  221.38   36.10
 -13 -29   9  174.68   23.30
  -9  29  13  159.58   27.80
   9 -29  13  172.48   21.50
 -13  -9 -29  145.79   24.40
  13  -9  29  192.68   31.20
 -29  13   9  123.99   54.19
  11  29  13  699.83   74.79
  13  11  29  611.84   74.29
 -11  29 -13  669.73   84.29
 -13  29  11  775.02   75.49
 -11  13  29  770.92   75.69
 -11 -29  13  748.13   70.99
 -13 -29 -11  516.15   75.99
 -13 -29  11  572.64   70.09
 -13 -11 -29  603.34   71.19
 -29  13  11  574.34  105.09
  13 -11  29  672.33   76.99
  11  13  29  553.04   72.89
 -13 -13 -29  364.56   43.60
 -29  13  13  347.67   80.79
 -29 -13  13  412.76   58.59
 -13 -29 -13  331.87   50.19
  15   1  29   -6.50   11.30
  29 -15  -1    5.30    7.60
   1  15 -29   15.20   38.10
 -29  -1 -15  -10.20   35.20
   1  29  15    2.70   11.10
  15 -29   1    7.80    7.30
  -1 -29  15    2.30    6.10
  -1  15  29    2.30   10.90
 -15 -29  -1   -9.20    7.70
 -15  29   1   -1.20   16.30
 -29 -15   1   16.00   25.50
  -1  29 -15    2.30   21.30
 -15 -29   1    1.50    8.20
 -29  -1  15    9.70   31.30
   1  15  29    2.80   11.60
  29 -15   1    7.00    8.20
 -29 -15  -1   16.00   25.20
 -29   1 -15   17.60   42.80
 -15  29  -1   -4.10   16.90
  15  -1  29   -9.70   11.20
  -1  29  15   -5.70   10.10
   1  29 -15   11.60   22.20
 -15  -1 -29   -5.10   14.40
 -15  29   3  270.77   37.20
  15 -29   3  237.38   28.30
  29 -15  -3  197.08   28.70
  -3  29 -15  311.57   45.60
 -29  -3 -15  128.69   57.09
  -3  15  29  213.88   33.20
   3  29 -15  234.68   52.19
  15  -3  29  280.87   36.80
  -3 -29 -15  226.88   35.90
 -15  -3 -29  197.78   30.80
   3  15  29  264.77   34.50
 -15  29  -3  193.48   40.10
 -29 -15  -3  191.38   49.20
   3 -29  15  211.08   27.30
 -29 -15   5  329.37   60.59
 -29   5  15  455.05   79.49
  29 -15  -5  399.46   45.90
  15 -29   5  395.06   45.10
  15   5  29  408.06   50.29
  -5  15  29  348.57   48.60
 -15  29   5  452.25   50.79
  -5 -15 -29  443.56   46.70
   5  15  29  370.06   49.40
  29 -15   5  408.66   46.70
  15  -5  29  374.76   51.39
 -15  29  -5  415.56   57.59
  29  -7  15  108.09   18.20
  -7  29 -15   94.19   31.40
  -7  15  29  119.59   24.50
  15   7  29   84.49   25.90
  -7  15 -29   54.19   41.30
   7  15  29  113.29   23.90
 -15  -7 -29  153.18   22.60
  29 -15   7  128.99   19.90
  15  -7  29   85.39   25.70
   9  29  15    3.40   12.80
  -9 -29  15    1.60    5.90
 -29   9  15   11.70   36.00
  29  -9  15    1.90    6.20
 -29 -15   9    1.40   20.20
 -15  29   9  -11.60   10.90
  -9 -15 -29    0.50    8.50
  -9  15  29   -7.80   10.70
  15   9  29    4.80   13.00
  -9  29 -15   -1.60   22.50
  15 -29   9    6.60    6.60
 -15  29  -9   -8.90   19.50
  -9  15 -29   16.20   37.50
 -29 -15  -9   22.20   33.30
 -29  -9  15  -12.10   22.90
 -15 -29   9    0.00    7.20
 -29  15   9  -23.20   35.00
 -15  -9 -29   -1.80    8.90
  -9 -29 -15    1.60   12.60
   9  15  29    1.40   12.70
  29 -15   9   -2.60    6.90
  -9  29  15   -3.40   10.90
  15  -9  29   -7.90   12.60
 -29 -15  11  115.69   33.10
 -29  11  15  215.78   61.69
 -11  29 -15  112.59   33.90
  15  11  29  137.49   27.50
 -15 -29 -11  121.19   31.50
 -11  15  29  110.79   25.20
  11  29  15  115.09   27.80
 -15  29  11  136.59   26.00
  11  15  29  178.98   27.60
  29 -15  11  153.78   21.60
 -15  29 -11   80.59   29.70
 -11 -29 -15  107.19   28.10
 -11  29  15  154.78   26.20
 -11  15 -29   60.69   43.60
  15  13  29  327.37   40.30
 -13  15  29  243.78   38.80
 -15  13 -29  239.78   73.69
 -13  29 -15  179.98   48.80
 -15  29  13  334.07   39.00
 -13  15 -29  424.06   79.89
 -15 -13 -29  257.17   35.00
 -29  15  13  142.19   63.19
 -15  29 -13  334.17   52.19
  13  15  29  331.07   39.40
 -15 -29  13  219.88   32.80
 -15  29 -15    7.80   25.40
  29 -15  15    6.40    8.20
 -29 -15  15   10.80   20.10
  15 -29  15   21.90    7.60
 -15  29  15    5.70   12.90
 -15  15 -29   10.90   41.30
 -15 -29 -15    1.40   16.80
 -15 -15 -29   12.30   11.00
  15  15  29   23.90   15.80
 -17 -29  -1   57.09   14.90
  -1 -29  17   18.30    8.10
  -1  17  29   32.00   14.00
 -17  29   1   46.90   19.50
  -1  29 -17   32.70   23.40
   1  17 -29    1.10   36.80
  17 -29   1   41.20   11.20
   1  29  17   47.30   15.90
 -29   1  17    8.40   31.10
  17   1  29   22.80   15.00
 -29   1 -17  -35.00   42.60
  -1  29  17   50.19   16.60
 -29  -1  17   10.80   30.60
 -17  29  -1   22.70   18.30
  17  -1  29   28.70   15.60
  -1  17 -29   24.20   43.80
 -17 -29   1   11.50   10.00
 -29 -17  -1   -2.60   22.70
  -1 -29 -17   34.40   14.10
  17 -29  -1   26.50    9.90
   1  17  29   36.00   14.10
   1  29 -17   43.60   26.80
   3  17 -29   17.40   46.30
 -29 -17   3   29.70   23.30
  -3  29 -17   51.29   28.40
 -29   3  17   33.00   36.60
   3  29  17   34.90   15.00
  17   3  29   33.10   15.00
 -17  29   3   18.00   15.80
  -3  17  29   28.60   13.80
 -17  -3 -29   34.90   13.40
  -3  29  17   22.40   13.70
   3  17  29   26.70   13.70
  29 -17   3   29.70   11.00
   3 -29  17   27.20    8.80
  -3 -29 -17   29.30   13.10
  17  -3  29   29.10   16.10
 -17  29  -3   59.29   23.30
 -29 -17  -3   -5.40   22.40
  -3  17 -29   10.40   38.10
  -5  29 -17  206.88   44.90
 -29   5  17  203.58   58.19
  -5  17  29  168.48   29.10
  17   5  29  132.69   28.50
 -17  29  -5  198.78   40.60
 -29  -5  17  151.18   42.00
 -17  -5 -29  189.68   27.40
   5  17  29  167.18   28.90
  17  -5  29  142.49   31.50
  -5  17 -29  174.58   53.49
 -17  29   7    4.80   12.00
   7  29  17   -2.20   11.30
  -7 -29  17   -0.50    5.30
  17   7  29   -3.60   11.70
  -7  17  29   -5.40   10.10
  29  -7  17   -2.30    6.90
  17 -29   7   -2.70    6.00
  -7 -17 -29   -2.20    7.60
 -29   7  17   40.20   40.20
  -7  29 -17   -3.80   21.80
  -7 -17  29    2.00    8.40
  -7 -29 -17   -1.40   11.10
 -29 -17  -7  -24.30   22.70
 -29  -7  17   20.30   25.30
  -7  17 -29   -6.30   37.30
 -17 -29   7    1.70    7.40
 -17  -7 -29   -2.80   10.70
 -17  29  -7   -5.60   19.10
  17  -7  29   -0.50   13.60
  -7  29  17    2.70   11.60
   7  17  29   -6.00   11.00
 -17  29   9   98.09   23.00
  -9  17  29  114.49   22.70
  -9 -17 -29   99.49   18.00
   9  29  17  101.39   22.90
 -29   9  17   52.19   45.00
  17   9  29  104.69   25.70
 -29  -9  17   50.59   28.00
  -9  29  17  123.19   24.20
   9 -29  17   66.69   13.40
   9  17  29   91.49   23.10
  -9  17 -29  102.39   46.00
 -17  -9 -29   70.59   20.50
  11  29  17   11.40   13.50
 -11  29 -17   16.90   25.20
 -11 -17 -29    4.80    9.00
 -11 -29  17    0.60    6.10
 -17  29  11   -0.80   11.80
  29 -11  17    8.10    8.20
 -17  11 -29   -9.60   37.40
 -11  17  29   -9.10   11.80
 -29 -17  11    0.30   17.80
  17  11  29    3.00   12.70
 -17 -11 -29   -3.10    9.80
  11 -29  17    6.20    5.70
 -29 -11  17    2.80   19.70
  11  17  29    6.20   12.90
 -29  17  11  -19.30   40.00
 -17 -29  11    3.40    7.30
 -11 -29 -17    9.00   14.10
 -11  17 -29   15.30   39.90
 -11  29  17   -5.80   10.70
 -17  29 -11   20.70   23.90
 -17 -29 -13  134.09   32.90
  17  13  29   91.89   26.60
 -17  29  13   38.70   16.60
 -13 -17 -29   87.39   18.30
 -29 -17  13   98.29   28.30
 -13  17  29  117.69   25.00
 -13  29 -17   83.29   32.00
 -17  13 -29   57.59   46.70
 -17 -13 -29   63.99   16.50
 -13  17 -29   32.00   41.50
 -13  29  17   66.69   18.30
 -13 -29 -17  102.39   25.60
 -17  29 -13   40.00   26.60
  13  17  29   45.90   16.70
 -17  29  15    1.80   13.50
 -15 -17 -29    5.70   10.50
 -15 -29  17    0.40    7.50
 -15  29 -17   -2.00   25.50
  17 -29  15   -2.80    5.40
 -17  15 -29   18.80   42.80
  17  15  29    5.80   15.00
 -17 -29 -15   -7.00   16.90
  29 -15  17    3.60    8.40
 -15  29  17   -4.60   11.60
 -17 -15 -29   -6.50    9.40
 -29 -15  17    6.40   16.90
  15 -29  17    0.00    5.20
 -15  17 -29  -10.60   39.70
 -17  29 -15    5.30   24.80
  29 -17  15    0.30    8.20
  15  17  29   -4.20   13.70
 -15 -29 -17   -3.90   15.90
 -17 -29  15    1.80    8.20
 -19  29   1   44.10   18.90
  -1  19  29   18.20   13.10
 -29 -19   1   14.10   21.80
 -29   1  19   27.10   31.90
   1 -19  29   25.30    9.60
   1  19 -29   50.79   46.10
   1  29  19   25.10   14.10
 -19 -29  -1   31.50   12.10
  -1  29 -19   66.49   31.60
  19   1  29   30.20   16.20
  19 -29  -1   44.20   12.90
 -19  29  -1   37.10   18.70
 -19 -29   1   18.40   10.00
  19  -1  29   18.90   15.90
  -1 -29 -19   12.40   12.20
  -1  19 -29   22.80   41.80
  -1  29  19   13.60   14.00
 -29 -19  -1    6.80   20.40
 -29  -1  19   28.00   30.10
   1  29 -19   10.90   26.20
   1  19  29   52.99   15.90
  19   3  29  259.87   41.40
 -19  29   3  223.58   40.00
 -19  29  -3  313.47   46.70
  19  -3  29  251.07   41.40
   3 -29  19  321.27   34.30
  -3  19 -29  455.45   77.29
   3  19  29  314.57   40.20
  19   5  29  326.97   42.70
  -5  29 -19  216.98   54.19
 -19  29   5  323.57   39.70
  19 -29   5  255.17   35.00
 -29  -5  19  227.48   51.09
  -5  29  19  313.97   40.90
   5  19  29  352.36   42.20
 -19  -5 -29  294.17   38.70
  19  -5  29  319.97   44.00
   5 -29  19  268.07   33.50
 -19  29   7   42.10   15.90
  19   7  29   60.79   19.50
   7  29  19   54.69   17.70
  29 -19  -7   45.70   13.00
  -7 -19 -29   67.39   15.60
 -29 -19   7   10.10   18.90
  -7  29 -19   51.69   28.60
  -7  19  29   22.00   13.00
  -7  29  19   51.99   17.00
  29 -19   7   79.19   16.00
  -7  19 -29   35.30   39.40
  19  -7  29   35.50   19.50
 -19  -7 -29   67.89   20.20
  -7 -29 -19   72.29   17.80
   7  19  29   40.80   16.20
 -19  29  -7    7.90   21.70
  -9  29 -19   24.70   27.60
 -29 -19   9    4.10   17.20
 -19  29   9    7.90   13.50
  -9 -19 -29    5.70    9.20
   9  29  19    8.90   14.10
  19   9  29   -2.80   13.10
  29  -9  19    6.80    7.80
  19 -29   9   -2.80    6.10
  -9  19  29   -7.10   10.40
  -9 -29  19   -1.60    5.80
 -19 -29   9    1.00    7.70
 -19  -9 -29   -8.10   10.50
   9 -29  19   -0.80    4.80
  -9 -19  29   -2.10    7.10
  -9  19 -29   12.40   38.00
 -19  29  -9  -12.30   21.70
   9  19  29   -5.70   12.00
 -29  -9  19   -3.70   18.20
  -9  29  19   -9.70   11.80
  -9 -29 -19    5.00   11.90
  29 -19   9    2.50    8.40
  19 -29  11  169.78   21.40
 -11  19  29  109.49   26.10
 -19  11 -29  104.59   52.09
 -29 -19  11  130.99   31.70
  19  11  29  131.39   28.70
 -11 -29  19  159.68   20.10
 -11  29  19   98.59   27.20
  11  19  29  132.89   28.90
 -11 -19  29  122.99   21.00
 -11  19 -29  166.48   54.99
  11 -29  19  141.09   18.90
 -19 -29  11  177.08   22.80
 -19  29 -11   82.59   32.70
 -11 -29 -19  147.09   28.20
  19  13  29  325.57   43.70
 -29 -19  13  233.88   41.70
 -19  13 -29  454.85   83.09
  19 -29  13  335.37   34.40
 -19  29 -13  245.98   51.59
 -19 -29  13  234.48   33.90
 -19 -13 -29  267.47   37.10
  13  19  29  251.27   40.30
 -21  29   1  210.48   35.10
  -1  29 -21  265.47   55.19
   1  29  21  197.68   31.70
 -21 -29  -1  233.58   30.80
  -1 -29  21  232.48   26.30
  29 -21  -1  162.98   26.70
  21   1  29  207.48   37.50
  -1  21  29  239.88   33.60
 -21 -29   1  175.38   28.40
  -1  29  21  146.59   32.10
  29 -21   1  225.28   28.60
   1  21  29  259.27   33.80
 -21  29  -1  197.88   39.00
  -1  21 -29  139.29   55.39
  21  -1  29  169.68   36.20
   3 -21  29  484.45   51.39
   3  29  21  486.05   56.09
 -29 -21   3  352.96   58.89
  21  -3  29  544.25   60.49
   3 -29  21  426.86   49.99
 -21 -29   3  443.66   52.89
  21   5  29  555.04   75.29
 -29 -21   5  541.65   76.49
   5  29  21  592.44   73.09
  -5  21  29  553.74   71.39
  29 -21  -5  745.53   70.29
 -21  29   5  699.63   72.99
  -5 -21 -29  590.14   68.79
  -5  21 -29  632.04  102.69
  -5  29  21  706.53   73.79
 -29  -5  21  634.84   83.89
  21  -5  29  641.74   77.29
 -21  29  -5  625.14   79.89
   5  21  29  692.33   73.79
  21 -29  -5  623.04   70.59
 -21  29   7  113.69   26.00
  -7 -21 -29  111.89   20.20
 -29  -7 -21   87.59   27.20
  -7  29 -21   44.20   32.40
 -29 -21   7  119.49   30.20
   7  29  21  159.98   26.50
  29 -21  -7  131.39   19.70
  21 -29   7  106.49   18.60
  29 -21   7  132.29   20.80
   7 -29  21   94.09   16.10
 -21  29  -7   80.29   30.50
  -7 -29 -21  133.29   23.80
  -7  29  21  107.09   26.40
  -7  21 -29  132.79   52.99
 -21 -29   7   89.59   18.40
 -21  29   9   30.10   16.30
 -21   9 -29   -7.00   41.70
  -9  21  29    4.20   12.20
 -29  -9 -21   37.90   22.30
 -29 -21   9   23.10   16.90
  -9 -21 -29   11.30    9.90
   9  29  21    7.00   14.00
  -9  29 -21   27.50   31.00
  21   9  29    8.00   15.80
  -9  21 -29   14.70   40.20
  -9  29  21   33.60   15.20
 -21  -9 -29   22.40   13.30
 -29  -9  21   18.40   21.10
 -21 -29   9   24.10   10.80
 -21  29  -9    4.70   22.50
  -9 -29 -21   31.00   14.10
   9  21  29   23.70   15.10
  -1  23  29   38.90   16.80
   1  29  23   14.90   14.70
 -29 -23   1   20.20   17.40
  23 -29   1   47.60   13.10
  -1  29 -23   20.50   33.10
  -1 -29  23   39.50   11.20
  29 -23  -1   45.20   12.90
 -23  29   1   10.80   16.70
  23   1  29   27.20   19.10
 -23  29  -1   31.40   20.30
 -23 -29   1   26.70   12.40
   1  23  29   34.00   17.10
  23 -29  -1   13.90   10.20
 -29 -23  -1    9.90   16.80
  -1  29  23   29.50   16.60
  -1  23 -29   12.40   42.30
  29 -23   1   43.80   12.90
  -1 -23  29   44.10   13.00
  23  -1  29    0.00   16.80
  -3 -29  23  184.18   21.90
   3 -23  29  127.99   20.80
  -3  29 -23  107.39   42.50
  -3 -23  29  161.38   22.50
  29 -23   3  132.89   26.00
  23  -3  29  134.49   36.40
   5 -23  29  224.78   31.40
   0 -30   0  262.77   29.40
   0   0  30  196.58   33.90
 -30   0  -2  -12.10   32.10
  -2 -30   0    1.30    5.70
  -2  30   0    1.20   13.00
   0  -2  30    3.50   11.60
   0   2  30   -1.20   11.70
   2 -30   0    3.20    6.10
   2  30   0    3.90   12.00
   2   0  30   -0.70   11.30
   0  30   2    6.60   11.80
 -30  -2   0  -15.80   31.60
  -2   0  30    2.30   10.90
   0 -30  -2   -0.50    5.80
   0 -30   2    0.40    5.60
   0  30  -2    2.50   13.50
  -2  30   2  156.08   26.80
  -2  30  -2  138.59   29.70
 -30  -2  -2  106.39   50.89
 -30   2  -2  101.99   52.59
 -30   2   2   55.49   43.10
  -2 -30  -2  121.09   18.40
  -2 -30   2  144.29   18.50
  -2  -2  30  122.09   25.40
  -2   2  30  142.29   25.20
   2  -2  30  130.89   25.10
   2   2  30  108.69   24.70
   2  30  -2  107.99   26.10
   2  30   2  140.19   24.10
   2 -30   2  121.79   18.10
   4  30   0  257.37   32.10
  -4  30   0  233.18   35.90
   0   4  30  208.88   31.60
   4 -30   0  231.78   26.80
 -30   4   0  149.49   55.09
  -4   0  30  219.88   33.30
   0 -30  -4  210.08   27.00
   0 -30   4  218.58   26.30
   0  30   4  200.38   31.20
   4   0  30  192.98   32.20
 -30  -4   0  223.68   60.69
 -30   0  -4  117.39   54.39
  -4 -30   0  183.88   25.60
   0  -4  30  210.08   33.50
  -4 -30  -2  552.14   67.49
   2 -30  -4  730.33   68.99
   2  30   4  581.34   71.29
  -4  -2  30  700.03   73.79
   4   2  30  702.53   73.09
   2  -4  30  592.74   72.19
  -2   4  30  597.34   72.09
   4  -2  30  638.54   72.19
   2  30  -4  527.85   73.49
  -2  30   4  746.83   72.39
  -4   2  30  577.14   71.99
   2   4  30  666.13   72.29
  -4  30  -2  519.35   73.19
   4 -30  -2  674.43   68.39
  -2  -4  30  664.03   73.99
   4   4  30 1383.46  147.69
  -4  30   4 1587.34  147.89
  -4 -30  -4 1193.18  143.99
  -4  30  -4 1398.76  150.78
  -4  -4  30 1575.74  150.48
  -4   4  30 1285.17  147.29
 -30   0  -6   -5.30   34.00
  -6 -30   0    1.00    5.30
   0 -30   6   -4.70    5.10
 -30   0   6    1.90   36.30
  -6  30   0    4.20   14.00
   0  -6  30   -0.70   13.30
   0   6  30    3.20   10.90
   6 -30   0    5.70    6.00
   6  30   0    3.40   13.10
   6   0  30    4.10   11.60
   0  30   6    3.00   11.80
 -30  -6   0  -17.40   30.80
   0  30  -6   -4.10   14.50
  -6   0  30    8.80   14.60
 -30  -2  -6   92.99   49.90
  -2   6  30  205.98   28.40
   2  -6  30  170.78   29.40
  -2  30  -6  113.29   31.40
   6  30  -2  168.88   28.30
 -30   2   6   62.59   45.10
  -6  -2  30  193.48   32.30
   6   2  30  159.98   26.90
  -2 -30   6  135.79   20.20
  -2  30   6  154.78   27.00
 -30  -6  -2  172.88   52.59
   6  -2  30  206.88   29.20
   2   6  30  185.48   27.30
  -2  -6  30  214.18   32.00
   2  30  -6  121.89   30.70
  -6 -30   2  136.79   20.10
 -30  -2   6  111.09   48.80
  -6  -4  30  868.11   93.89
  -4   6  30  686.93   89.29
   4  -6  30  751.32   91.19
 -30   4   6  637.24  114.79
  -6 -30  -4  961.80   89.49
   6   4  30  935.41   92.59
  -6   4  30  940.51   92.09
   6 -30  -4  842.32   86.89
  -4  30   6  821.42   90.39
   4  30  -6  924.11   94.69
   4   6  30  759.72   89.59
   6  -4  30  724.23   90.09
  -4  -6  30  717.23   92.79
   6  30   6  353.06   42.20
  -6  -6  30  361.86   48.50
   6  30  -6  352.76   47.60
   6   6  30  260.77   40.60
  -6   6  30  274.97   41.40
  -6  30   6  274.87   39.70
 -30  -6   6  330.87   65.49
   8 -30   0   75.69   12.80
   8  30   0   83.09   21.20
  -8 -30   0   53.19   11.90
 -30  -8   0   64.79   42.70
   0  -8  30   61.79   19.40
   0  30   8   73.29   20.70
   0  30  -8   22.20   19.20
 -30   0  -8   47.10   41.80
  -8   0  30   52.69   21.00
  -2 -30   8    5.60    7.70
   2  -8  30    3.60   13.40
   8 -30   2    9.80    6.90
  -8  -2  30   14.20   16.50
  -8  30   2   -0.50   15.60
   8   2  30    3.20   12.40
   2  30   8   13.50   12.20
  -2  30  -8   -8.60   15.80
  -2   8  30    8.20   12.20
  -8 -30  -2   -1.10    4.90
  -2  -8  30   16.00   15.20
  -8 -30   2    4.30    5.60
   2  30  -8    3.90   17.30
  -8   2  30    8.00   14.70
   8  30   2    0.40   13.30
   8 -30  -2    9.40    6.90
 -30  -8  -2   -8.70   30.80
   8  -2  30    9.40   13.80
  -8  30  -2   16.80   26.90
 -30   2  -8   -3.20   36.40
  -2  30   8    2.60   19.00
  -4   8  30  168.48   42.20
   8 -30   4  274.27   29.30
   8   4  30  201.78   33.90
 -30  -8   4  238.78   57.69
 -30  -4  -8  205.38   61.49
   4  30   8  272.77   34.60
  -8  -4  30  248.98   41.10
  -8  30  -4  235.58   40.00
  -8   4  30  216.48   36.00
   4   8  30  225.38   33.70
   8  30   4  261.27   35.50
   4 -30   8  276.97   31.20
   4  30  -8  153.88   38.40
   8  -4  30  233.58   35.00
  -4  -8  30  282.47   41.50
 -30  -4   8  121.89   51.79
  30  -8   4  197.28   29.30
 -30  -6  -8   14.50   32.70
  30  -6   8    8.70    6.10
  -6 -30   8    8.50    6.00
  -6  30  -8    1.20   16.90
   8 -30   6    6.40    6.60
   8   6  30   12.40   13.00
 -30  -8   6  -11.20   29.40
   6  -8  30   16.10   14.10
 -30   6   8   11.10   38.80
  -8  30   6   14.10   12.30
   6  30   8   17.70   12.90
  -6  -8  30    5.80   17.60
  -8  -6 -30    9.00    9.80
  -8   6  30   19.50   13.60
   6   8  30    1.70   10.40
  -6  30   8   26.50   13.60
   6 -30   8   15.10    7.00
  30  -8   6   13.60    7.30
   8  -6  30    6.50   13.10
 -30   8   6  -10.70   36.80
  -8 -30   6    9.40    6.40
  -8  30  -6    8.70   17.90
   8  30   6   15.60   13.70
 -30   8   8  -17.00   37.90
  -8 -30   8   11.20    6.70
  -8  -8 -30   38.80   11.60
  -8   8  30   35.50   17.50
  -8  30  -8   33.40   20.30
  -8  30   8   21.80   13.40
   8  -8  30   27.20   15.20
   8   8  30   20.30   13.60
 -30  -8  -8   16.10   35.20
   8  30   8   23.40   14.00
   0  10  30  115.19   23.00
 -10  30   0   74.89   22.60
   0 -10  30  170.18   43.60
  10 -30   0   81.99   15.20
 -30   0  10  139.39   48.10
  10   0  30  126.99   24.20
   0  30  10  112.29   22.90
 -30 -10   0  107.99   40.10
   0  30 -10  103.19   30.90
 -10  30   2   -5.70   13.20
  -2  10  30    2.00    9.70
   2 -10  30   -3.60   13.00
 -30 -10   2  -13.60   28.40
  -2 -30  10    1.50    5.60
  30 -10  -2    2.60    5.40
  10   2  30   -0.20   10.80
   2  30  10    7.60   11.80
 -10 -30  -2    1.70    6.30
   2 -30  10   -2.10    5.00
  10 -30  -2   -0.20    6.30
 -30   2 -10   15.20   36.90
  -2 -10  30   -2.60   14.10
 -10 -30   2    0.60    5.40
 -10  30  -2   11.50   16.40
   2  10  30    2.20   11.70
 -10   2  30  -13.60   14.80
 -30  -2  10    4.40   31.80
  -2  30  10   -1.40   10.90
   2  30 -10   -9.80   18.60
  10  -2  30    0.00   11.30
  10   4  30  174.68   31.10
  -4  30 -10  164.48   37.40
   4 -10  30  177.78   33.10
  -4  10  30  177.78   30.40
   4 -30  10  219.08   25.40
 -10  30  -4  239.78   39.00
 -30 -10  -4  190.28   52.49
 -10   4  30  195.18   36.10
  10  -4  30  201.38   33.00
   4  10  30  196.18   31.70
   4  30 -10  270.67   43.60
  -4 -10  30  159.98   36.60
  -4  30  10  220.18   32.00
 -10  30   6   49.80   15.50
 -30   6  10    2.10   38.50
 -30 -10   6   28.70   30.20
  -6  30 -10   37.50   21.40
   6  30  10   27.60   14.00
  10   6  30   44.10   16.30
   6 -10  30   30.20   15.70
  30  -6  10   39.00   11.20
  -6  10  30   33.90   14.60
  -6  30  10   69.29   17.90
   6  10  30   27.40   13.80
 -10  -6 -30   51.99   15.30
  10  30   6   14.00   15.60
  30 -10   6   40.10   11.70
  10  -6  30   43.20   17.30
   6 -30  10   30.20    9.50
 -10  30  -6   17.60   19.70
 -30 -10  -6   34.60   30.50
 -30  -8 -10  -10.50   32.40
   8 -10  30    2.90   13.20
  30  -8  10    9.20    7.00
  -8 -10 -30    7.80    9.00
  -8  30 -10    1.40   17.80
  -8  10  30   10.40   13.20
  10   8  30    5.20   12.90
   8  30  10    2.60   12.30
 -30   8  10   14.00   39.80
 -30 -10   8  -19.00   24.40
 -10  30   8   -1.30   12.10
  -8  30  10    5.50   12.60
 -10  -8 -30    7.50    9.20
   8  10  30   14.60   12.40
   8 -30  10    8.10    6.40
  10  30   8    8.00   19.40
  30 -10   8    7.00    7.00
  10  -8  30   -5.10   12.10
 -30 -10  -8   22.30   33.80
 -10  30  -8   -3.40   18.30
 -10   8  30   -1.80   13.60
 -30  -8  10    5.90   28.10
 -10  30 -10   -6.90   18.20
  10 -10  30   13.10   15.00
  10  10  30   -0.60   11.80
 -10 -30  10    6.00    6.70
 -10 -10 -30   -0.40    8.40
 -10  10  30    9.90   12.80
 -30 -10 -10   23.50   34.10
 -30  10  10   34.30   44.20
 -10 -30 -10   12.30   18.00
  30 -10  10    2.60    7.50
  10  30  10   13.70   14.90
  10 -30  10   18.60    7.50
 -10  30  10   14.70   13.60
  12   0  30   22.50   13.90
  30 -12   0   17.80    8.30
 -30 -12   0   14.30   27.90
 -12 -30   0   14.20    8.10
 -12  30   0   10.10   16.10
 -30   0 -12   24.50   39.40
   0  30  12   15.00   12.90
   0  30 -12   66.19   25.40
   0 -12  30   18.30   17.30
   0  12  30   29.50   14.00
   2 -12  30  399.36   50.59
 -12 -30  -2  390.06   43.10
  12   2  30  390.76   47.20
  -2  12  30  321.27   45.40
   2  30  12  417.06   47.70
  30 -12  -2  375.66   43.00
 -12  -2 -30  378.06   44.70
  12 -30  -2  316.37   41.30
  12  -2  30  342.07   47.10
   2  12  30  337.47   45.70
  -2  30  12  407.56   47.00
 -30   2 -12  238.78   73.09
   4 -12  30 1155.88  126.89
   4  30  12 1079.29  123.69
  -4  30 -12 1094.49  129.39
  12   4  30 1183.18  125.19
  -4  12  30 1197.38  124.29
 -12  -4 -30 1151.18  121.89
   4 -30  12 1287.57  120.79
  12  -4  30 1169.78  125.99
  -4  30  12 1112.39  123.99
  -6  12  30  649.14   71.09
  -6  30 -12  639.04   77.89
 -30   6  12  686.03  101.29
  -6 -30  12  531.05   65.29
   6 -12  30  618.04   73.69
 -30 -12   6  543.75   83.59
 -30  -6 -12  628.54   98.09
  12   6  30  671.83   72.29
   6  12  30  646.54   71.69
  -6  30  12  548.55   69.89
  12  -6  30  649.24   72.89
 -12 -30   6  679.93   67.99
  30 -12   6  589.94   67.29
  30  -8  12  164.48   23.70
 -12 -30  -8  189.88   39.50
  -8  12  30  208.08   30.00
  -8  30 -12  165.68   39.40
 -30  -8 -12  222.88   61.49
 -12  30   8  193.38   29.50
   8  12  30  178.18   29.40
  12  -8  30  203.08   32.20
  30 -12   8  161.08   23.80
 -30  12   8  117.39   55.39
   8 -30  12  134.79   21.30
 -30 -12  10  198.08   48.00
 -10  30 -12  243.08   46.70
  12 -30  10  272.77   29.90
 -12 -30 -10  291.57   44.20
 -30  10  12  148.49   56.59
  12  10  30  236.78   36.40
 -10 -30  12  282.07   30.40
 -10  12  30  244.18   37.10
  10  12  30  281.97   36.20
 -30  12  10  208.78   66.59
 -12  30 -10  199.48   43.80
  12 -10  30  232.48   38.30
 -12  10  30  240.98   38.40
 -10  30  12  206.88   35.20
 -30 -12 -10  214.98   58.09
  12  12  30  730.73   85.29
 -12 -12 -30  784.92   82.09
 -12 -30 -12  743.53   88.29
  12 -30  12  777.32   80.49
 -30   0 -14   17.80   40.70
 -30 -14   0  -13.80   23.10
   0  30 -14   50.29   25.00
   0  30  14   12.90   12.70
 -14 -30   0   31.50   11.60
 -30   0  14   26.00   34.70
  14   0  30   16.50   13.90
  14 -30   0   24.60    8.90
   0  14  30   13.60   12.70
 -14  30   0   -2.10   15.70
  14 -30   2  166.58   23.30
   2  30  14  240.98   30.70
  -2  30 -14  149.19   37.80
 -30  -2 -14  125.49   52.39
 -30   2  14  229.68   57.99
 -30   2 -14   80.09   49.99
  14 -30  -2  161.38   24.40
   2  30 -14  163.28   42.50
   2  14  30  235.48   30.80
 -14  -2 -30  175.48   28.90
 -30 -14  -2  195.88   46.90
 -30  -2  14  227.28   53.09
  -4  30 -14  690.83   91.99
  -4  14  30  889.31   87.29
  14   4  30  801.92   86.99
 -14 -30   4  695.73   83.09
  14  -4  30  801.02   88.59
  14   6  30  418.86   63.19
   6  30  14  623.14   65.29
 -30 -14   6  610.34   78.09
  14 -30   6  498.15   58.69
  -6  30  14  622.94   64.59
  30 -14   6  577.04   60.79
 -30  -6  14  587.04   81.09
   6  14  30  492.95   63.49
  14  -6  30  506.15   64.89
  -8  30 -14   70.69   28.70
  -8 -14 -30   75.69   18.80
  -8 -30  14  102.19   16.40
  14   8  30  164.58   27.40
 -14  30   8  111.59   24.20
   8  30  14  102.09   25.60
 -14 -30   8  134.19   19.40
   8 -30  14  113.29   16.60
 -14  30  -8  133.99   35.80
  -8 -30 -14  153.28   29.30
  14  -8  30  149.29   28.20
   8  14  30  155.48   26.60
  14  10  30  153.68   29.10
 -30  10  14  123.49   50.89
  10  30  14  136.29   27.20
  30 -10  14  126.19   20.10
 -10  14  30  167.68   27.70
 -10 -14 -30  127.99   21.50
 -10  30 -14  180.78   41.00
 -10  14 -30   85.79   44.50
 -30  14  10   84.09   52.09
  10  14  30  139.49   26.30
 -10 -30 -14  135.79   30.50
  14 -10  30  146.09   30.00
 -14 -10 -30  105.19   21.60
  14 -30  12  641.84   62.09
 -14  30  12  596.24   66.49
 -30  12  14  638.14  100.89
  30 -12  14  578.94   63.19
  14  12  30  593.34   68.19
 -12  14 -30  472.15   91.79
  12  14  30  687.53   68.29
 -30 -12  14  639.74   78.99
  12 -30  14  469.75   60.69
 -12  30  14  498.45   65.69
 -30  14  12  409.66   96.89
 -14  30 -14  189.88   52.39
  14  14  30  350.66   42.80
  14 -30  14  285.97   34.20
 -30 -14  14  335.97   50.59
   0  30  16   74.09   20.70
   0  30 -16   69.29   27.50
 -16 -30   0   53.29   15.30
 -16  30   0   29.10   20.00
   0  16 -30   14.30   42.60
  16   0  30  100.89   24.30
 -30   0 -16   16.70   44.50
 -30   0  16   16.00   31.70
   0  16  30   81.69   20.50
 -30 -16   2    9.00   23.50
 -30   2  16  -11.00   32.40
   2  16 -30  -55.99   43.70
 -16 -30  -2   -1.30    9.00
  16   2  30    0.40   12.40
  -2 -30  16   -1.10    5.40
  -2  30 -16  -12.50   19.40
   2  30  16   -5.90   11.50
  16 -30   2    6.00    7.10
  -2  16  30   -2.70    9.80
 -16  30   2   12.20   14.70
  30 -16  -2   -2.60    6.40
  30 -16   2   -0.30    6.40
 -30  -2  16  -10.90   27.30
 -30 -16  -2   12.40   23.60
 -16  -2 -30    5.70   19.40
   2  30 -16  -33.20   22.00
  16  -2  30    9.80   14.00
 -30   2 -16  -23.30   40.00
 -16  30  -2   -2.10   16.60
  -2  30  16    0.10   10.90
 -16 -30   2    3.00    7.90
   2  16  30   -4.40   11.10
  -2  16 -30   -8.10   36.60
   2 -30  16   -0.60    5.50
  -4  16  30   88.09   22.50
  16   4  30  100.19   24.10
 -16  30   4   94.99   25.80
 -30   4  16   68.49   42.10
  -4  16 -30  135.49   49.80
 -16 -30   4   84.89   17.20
  16 -30  -4   93.29   17.90
  16  -4  30  125.59   25.80
   4  16  30   75.29   21.50
  -6  16  30   30.30   13.80
   6  30  16   83.79   21.00
  -6 -30  16   38.70    9.60
  -6  30 -16   70.19   27.20
  16   6  30   33.00   16.30
  16 -30   6   30.80   10.20
 -30   6  16   90.79   45.00
 -16  30   6   53.29   16.00
 -30 -16   6   37.30   24.70
  -6  16 -30   51.69   41.90
  30 -16   6   49.80   13.00
 -16  30  -6    6.00   19.50
  -6  30  16   23.60   14.10
 -16 -30   6   22.50   10.10
   6 -30  16   41.80    9.80
   6  16  30   36.60   15.50
 -30 -16  -6   38.00   29.30
  -6 -30 -16   55.69   16.90
  16  -6  30   39.30   17.40
 -16  -6 -30   44.90   13.30
 -30   8  16   13.10   40.80
  -8 -16 -30   15.20    9.70
 -16  30   8   27.00   14.10
  16   8  30   32.40   15.40
   8  30  16   36.40   14.90
  30  -8  16   26.60    9.20
  -8  30 -16   23.40   22.80
  16 -30   8   33.50    9.50
  -8  16  30   24.20   12.90
  -8 -30 -16    7.50   13.90
  -8  16 -30    0.50   39.20
 -16  30  -8   47.10   24.40
  30 -16   8   41.10   12.40
 -16  -8 -30   11.00   10.30
   8  16  30   35.10   15.10
  16  -8  30   27.30   16.80
  -8  30  16   34.10   15.30
 -10  30 -16    7.70   22.60
 -30  10  16   20.80   42.50
 -10 -30  16    9.90    6.90
 -16  30  10   38.10   15.50
 -10 -16 -30   22.70   10.40
 -16 -30 -10   19.30   19.40
  10  30  16   63.99   19.40
 -10  16  30   44.00   15.60
  16  10  30   34.20   15.30
 -16  30 -10   24.90   22.90
 -30  16  10   35.50   44.70
  10  16  30   31.00   14.80
 -10 -30 -16    7.20   14.70
 -16 -10 -30   19.40   11.30
 -10  30  16   39.70   15.00
 -10  16 -30    1.10   37.80
 -12 -30  16   47.50   12.00
 -12  16  30   88.69   23.60
 -16 -30 -12   78.79   24.30
 -16  30  12   63.49   18.00
  16  12  30   92.89   24.10
  16 -30  12   38.90   10.80
 -16  12 -30   36.90   42.90
 -12  30 -16   96.89   31.30
 -30  16  12   40.40   50.19
  30 -16  12   69.39   14.80
 -12  16 -30   67.29   45.90
  12  16  30   72.59   19.20
 -30 -12  16    4.60   21.20
 -12 -30 -16   33.30   17.50
 -16  30 -12   36.70   26.40
 -14  16  30   21.50   17.10
 -16  30  14   33.50   15.60
 -16  14 -30   18.90   40.10
 -16 -30 -14   -2.40   18.40
 -30 -16  14   20.60   19.80
  16  14  30   22.20   15.60
 -14  30 -16    4.80   24.60
  16 -30  14   14.40    7.20
 -14 -30  16   18.50    8.80
 -14 -16 -30   27.60   11.50
 -30 -14  16  -12.90   19.10
 -14 -30 -16   20.30   17.80
 -14  30  16   19.70   14.40
  14  16  30   24.00   15.80
 -16 -14 -30   11.50   11.20
 -16  30 -14   39.70   27.60
 -14  16 -30   59.19   42.80
 -16 -30  14   32.90   10.80
   0  30  18   39.40   15.70
 -30 -18   0    3.90   23.00
 -30   0  18    8.80   31.30
   0  18 -30   -2.10   43.00
  30 -18   0   30.10   10.30
  18 -30   0   27.80   10.80
  18   0  30   19.60   15.70
 -18  30   0   13.00   17.50
   0  18  30   19.00   14.00
   0  30 -18   15.70   25.70
 -18 -30   0   37.40   12.90
 -30   2  18  -27.60   31.20
  18   2  30   21.70   15.60
  30 -18  -2   17.50    8.60
   2  30  18   13.70   13.80
 -30 -18   2   -8.50   19.10
  18 -30   2   14.10    9.30
  -2  18  30   16.40   12.90
   2  18 -30   35.70   48.80
 -18  30   2   22.70   16.70
  -2  30 -18   15.90   23.70
   2 -30  18   28.20    8.50
  -2  30  18   17.10   14.30
 -18  30  -2   15.00   18.20
  30 -18   2   12.70    8.70
   2  18  30    9.50   12.50
 -30  -2  18   11.30   27.90
 -18 -30   2   17.50    9.80
  18  -2  30   25.00   16.20
  18 -30  -2   14.30    9.20
  -2  18 -30  -35.40   36.70
   4  30  18  183.88   31.30
 -30 -18   4  139.79   37.80
  -4  18  30  190.78   30.80
  18   4  30  222.08   33.40
  -4  30 -18  182.38   45.00
 -18  -4 -30  204.88   30.90
  30 -18   4  195.58   27.00
  -4  30  18  170.08   31.60
  18  -4  30  205.08   34.40
   4  18  30  243.08   32.70
   6  30  18   33.40   15.60
 -18  30   6   14.20   13.50
 -30   6  18   35.20   40.40
  18 -30   6   66.19   13.20
  -6  18  30   43.90   16.20
 -30 -18   6   22.30   20.10
  -6  30 -18   16.70   23.90
  18   6  30   35.00   17.10
 -30  -6  18   24.20   27.10
   6  18  30   44.30   15.70
  18  -6  30   32.70   17.60
 -30 -18  -6   13.40   26.00
   6 -30  18   44.80   10.10
  -6  30  18   40.70   15.70
 -18 -30   6   47.80   13.20
  -6 -30 -18   42.60   14.70
  -6  18 -30   -3.00   37.10
 -18  30  -6   11.00   20.20
  -8  30 -18   21.70   25.50
  18 -30   8   31.70   10.20
  -8  18  30   23.10   14.30
  18   8  30   25.30   15.90
 -18  30   8   19.00   14.00
   8  30  18   30.70   16.60
  -8  30  18   26.60   14.00
  -8  18 -30  -20.30   38.30
 -18  30  -8   35.50   23.00
 -18  -8 -30   28.90   13.00
   8  18  30   21.50   14.70
   8 -30  18   14.00    7.00
 -30  -8  18   23.40   25.10
  30 -18   8   24.10   11.20
  -8 -30 -18    7.20   12.30
  10  30  18   17.00   14.60
 -18  10 -30   27.30   42.80
 -18  30  10   -6.00   12.60
 -30 -18  10   13.70   18.80
 -10  30 -18   -2.20   24.40
  18  10  30   16.20   15.10
 -10  18  30    4.80   12.70
 -10 -18 -30    6.30    9.40
 -30  18  10  -28.10   45.70
 -10  18 -30  -13.80   39.00
 -10 -30 -18   11.20   14.30
 -18 -10 -30    4.40   10.80
 -18 -30  10    1.20    8.20
 -10  30  18    4.60   12.70
 -30 -10  18  -14.80   19.00
 -18  30 -10   33.10   26.00
  10  18  30   31.90   16.70
 -18  12 -30   72.29   47.10
  30 -12  18   91.79   15.90
 -12 -18 -30   52.99   14.60
 -18 -30 -12  120.79   32.10
  18  12  30   95.09   27.50
 -12  30 -18   25.50   28.40
 -18  30  12   52.99   17.70
  18 -30  12   71.69   13.30
 -12  18  30   75.99   20.70
 -30 -18  12   38.20   21.20
 -18 -30  12   57.69   14.90
 -18  30 -12   42.70   26.70
  12  18  30   90.29   25.90
 -18 -12 -30   84.59   21.30
 -12  30  18   79.39   22.10
 -12  18 -30   66.89   44.60
   0  20  30   66.19   18.20
  20 -30   0   48.70   14.40
   0  20 -30   52.59   48.90
   0  30  20   96.09   22.90
  30 -20   0   77.09   15.00
 -30   0  20    5.90   30.10
 -20 -30   0   54.49   16.40
  20   0  30   45.90   19.30
 -20  30   2  312.47   43.70
  20   2  30  386.16   46.30
  -2  20  30  285.57   41.40
  20  -2  30  343.67   45.70
   2 -30  20  320.97   36.20
  -2  30  20  252.87   41.00
   2  20  30  277.07   41.20
   4  30  20  509.75   67.39
 -20  30   4  505.05   66.49
  -4  30 -20  646.04   82.79
  -4  20  30  632.44   68.79
 -20  30  -4  642.74   75.39
 -20 -30   4  524.45   64.89
  20  -4  30  752.02   73.29
 -30  -4  20  646.94   82.39
  -4  20 -30  503.75   98.29
   4  20  30  549.65   68.39
  20   6  30  205.68   37.00
 -20  30   6  165.98   34.00
  -6  30 -20  215.48   48.90
  -6 -20 -30  220.98   29.20
  -6  20  30  160.08   33.30
   6  30  20  283.47   35.70
  30 -20   6  208.88   29.30
  -6 -30 -20  271.67   33.10
   6 -30  20  232.38   26.60
  -6  20 -30  106.39   53.39
 -20 -30   6  243.58   29.90
 -20  30  -6  203.98   44.50
   6  20  30  173.48   33.20
   8  30  20   13.60   14.40
  20 -30   8   25.90    9.80
  -8 -30  20   10.20    7.10
  -8  30 -20   38.20   30.00
 -20  30   8   13.80   15.20
 -30 -20   8   -9.00   15.70
  -8  20  30   14.80   14.20
  -8 -20 -30   11.20    9.70
  20   8  30   11.70   15.10
  -8 -30 -20    6.10   11.90
   8  20  30   16.80   14.50
  -8  30  20   21.00   15.80
 -20  30  -8   13.60   22.80
 -20  -8 -30   -0.10   12.00
 -20 -30   8   23.40   10.20
  -8  20 -30   31.90   39.60
  22 -30   0  107.89   19.00
   0  22  30   94.79   26.10
  30 -22   0   75.19   17.70
  22   0  30   49.90   36.30
  22 -30   2  174.78   26.40
 -30 -22   2  137.59   33.60
  22   2  30  221.08   57.49
  -2  30 -22  177.28   62.89
   2 -30  22  142.29   26.50
 -22 -30   2  205.68   28.00
  30 -22   2  194.18   26.80
 -31  -1  -1  162.28   93.99
 -31   1   1   61.59   51.79
  -1 -31  -1  143.99   19.40
  -1  -1  31  167.68   27.10
  -1   1  31  142.79   26.60
  -1  31  -1   97.09   27.00
  -1  31   1   92.49   24.60
   1  -1  31  137.39   26.00
   1   1  31  140.89   26.10
   1  31   1  123.89   24.00
 -31  -1  -3   17.10   44.00
  -3  -1  31   26.30   15.10
 -31  -3   1    0.30   37.40
 -31   1   3   24.90   41.20
  -3 -31  -1   21.30    7.80
   1  31   3   43.70   15.00
  -1 -31   3   37.70    9.80
  -3  31   1   35.90   16.20
   3  31  -1   11.90   13.70
  -1   3  31   27.30   13.90
   1  -3  31   30.10   15.00
   1 -31  -3   22.30    8.40
  -1  31  -3   25.70   16.60
  -1  -3  31   45.60   16.50
   3 -31  -1   21.40    8.50
   3  31   1   27.10   14.10
  -1 -31  -3   21.00    9.00
  -3  31  -1   15.70   16.00
  -3   1  31   25.00   14.40
  -1  31   3   42.80   14.30
 -31  -1   3   37.80   40.20
   1  31  -3   32.00   17.40
  -3 -31   1   12.20    7.30
 -31   3   1   28.30   42.50
 -31   1  -3   32.10   49.30
  -3  -3  31  471.25   55.89
  -3   3  31  397.06   53.29
   3   3  31  434.06   54.49
   3  31  -3  523.35   56.09
  -3 -31  -3  391.96   49.00
  -1  31  -5   31.00   17.70
 -31  -1  -5   48.60   42.70
  -5 -31  -1   19.60    8.50
 -31   1   5   19.50   39.50
   5   1  31   29.30   14.70
  -5  31   1   43.00   16.10
  -5  -1  31   38.10   17.00
  -1   5  31   17.10   15.40
  -1 -31   5   16.80    9.80
 -31  -5   1   16.50   34.20
   5  31  -1   29.30   15.50
   1  31   5   43.90   26.40
  -5  31  -1   36.10   17.60
  -5 -31   1   32.00    9.10
   1  31  -5   24.70   16.10
   5  31   1   39.00   15.20
   5  -1  31   36.90   14.60
   1   5  31   20.00   13.90
 -31   1  -5   13.00   38.70
  -1  -5  31   34.80   15.50
  -5   1  31   30.40   15.20
   5 -31  -1   21.90    8.80
 -31   5   1   23.10   39.00
  -5  31   3  407.26   53.39
  -5  -3  31  461.45   56.49
   5   3  31  445.46   54.29
   5  31  -3  437.76   55.19
 -31   3   5  375.16   82.09
  -5 -31  -3  381.46   49.50
   5 -31   3  509.65   51.89
   3  -5  31  454.95   56.09
  -3  -5  31  473.65   56.89
   5  31   3  468.85   55.89
   5  -3  31  423.96   54.09
  -5   3  31  471.15   55.39
   5  -5  31  481.45   58.99
  -5  31   5  406.86   55.69
   5  31   5  512.35   57.89
   5  31  -5  433.06   59.49
   5   5  31  552.64   58.99
  -5  -5  31  469.15   61.69
  -5   5  31  527.65   60.99
   7  31  -1   62.29   20.50
  -1   7  31   83.09   21.10
   1  -7  31  112.19   25.10
  -7  -1  31   87.29   23.00
   7   1  31   84.29   21.50
  -7  31   1  121.49   25.40
 -31  -1  -7   48.20   42.60
  -7  31  -1  101.09   26.20
   7  -1  31  101.49   23.60
   7 -31  -1  105.79   15.90
   1  31  -7  109.99   28.40
   1   7  31   98.09   21.60
   1 -31   7   91.39   14.90
  -1  31   7   87.49   22.70
  -7 -31   1   80.89   14.50
   7  31   1  106.49   24.10
  -7   1  31   94.79   27.70
   7   3  31   25.90   14.60
   3  31   7   48.20   17.00
 -31  -7   3   49.90   37.30
  -3   7  31   32.60   14.70
  -7  -3  31   34.80   18.70
   3  -7  31   25.30   15.70
 -31   3   7  -12.90   36.30
  -3 -31   7   31.70    9.10
 -31  -3  -7   40.40   40.80
   7  31  -3   24.20   22.00
  -7  31   3   28.30   15.20
  -3  31  -7   45.30   20.90
 -31   7   3   22.10   39.70
   3 -31   7   40.90   10.30
  -7   3  31   31.70   16.90
   7  -3  31   38.40   14.90
  -7  31  -3   58.29   20.60
 -31  -3   7    7.40   34.50
   3  31  -7   11.60   16.90
   7  31   3   46.60   15.90
   7 -31  -3   34.20    9.80
  -3  31   7   31.70   15.00
   3   7  31   22.40   13.70
  -5  31  -7   29.00   20.30
 -31  -5  -7   -7.50   30.80
 -31   5   7   33.50   40.40
  -7  -5  31   46.80   22.30
   5  31   7   82.79   22.70
   5  -7  31   52.69   17.90
   7   5  31   33.60   16.00
  -7  31   5   72.79   17.60
 -31  -7   5   98.89   41.20
  -5   7  31   37.20   14.90
   7  31   5   52.49   18.30
  -5  -7  31   56.39   36.40
 -31  -7  -5   76.79   40.80
 -31  -5   7   28.60   35.50
 -31   7   5   36.00   42.20
   5  31  -7   21.10   18.10
  -7   5  31   66.19   19.70
  -7  31  -5   32.90   20.30
  -5  31   7   69.99   20.10
   5 -31   7   54.89   11.50
  31  -7   5   69.09   13.20
   7  -5  31   70.39   19.30
   5   7  31   49.30   16.30
  31  -7   7   50.79   12.50
   7   7  31   78.29   21.10
 -31  -7   7   88.19   38.10
 -31   7   7   50.89   44.70
  -7   7  31   44.70   16.60
  -7  31  -7   54.79   22.20
  -7  31   7   60.79   17.20
 -31  -7  -7   46.60   37.70
   7  -7  31   70.09   19.90
 -31  -1  -9  178.18   60.19
  -1   9  31  167.48   29.70
   9   1  31  148.19   29.00
  -9  31   1  190.68   32.40
  -1  31  -9  119.29   36.90
   1  -9  31  183.88   33.10
  -1  -9  31  182.98   33.40
   1  31  -9  230.48   40.50
 -31   1  -9   85.09   49.90
   1   9  31  169.48   29.60
   9 -31  -1  236.18   30.00
   1 -31   9  229.18   24.50
  -9   1  31  220.28   39.30
  -1  31   9  182.38   29.50
   9  -1  31  155.38   30.60
 -31  -3  -9   13.50   38.30
   9 -31   3    1.30    5.70
 -31  -9   3   -1.00   30.70
   3  -9  31   10.70   13.70
   9   3  31   -4.10   12.00
   3  31   9    3.10   12.20
  -9  31   3   -1.90   13.00
  -3  31  -9    0.40   16.70
  -3   9  31    3.40   11.10
  -3 -31   9    0.10    5.50
  -3  -9  31   -8.00   14.70
   9  -3  31   -1.50   11.80
   9 -31  -3   -1.10    6.30
 -31   3  -9    4.20   38.00
 -31  -9  -3   19.80   32.90
  -9  31  -3   -3.50   15.40
  -3  31   9    2.50   11.70
   3   9  31   -4.40   10.40
  -5  31  -9   13.90   18.50
   9 -31   5   -3.90    5.40
 -31   5   9  -10.70   35.70
   5  -9  31    4.20   13.30
 -31  -9   5    7.10   29.50
  -5   9  31   -0.30   11.70
  -9  31   5   -0.40   10.90
   5  31   9    0.70   12.40
   9   5  31   -3.90   11.50
 -31  -5  -9   10.50   35.00
   9  31   5  -13.10   22.10
  -9 -31   5    4.00    5.80
   5   9  31    1.20   11.10
   9  -5  31    5.60   13.00
 -31   9   5  -20.00   36.80
  -9   5  31   15.30   15.10
  -5  31   9   -3.70   12.00
   5 -31   9    1.50    5.50
 -31  -9  -5   -8.40   29.80
  -9  31  -5   -0.40   17.10
  -5  -9  31   12.90   17.90
   9 -31   7   50.49   11.40
 -31  -9   7    2.40   30.60
 -31  -7  -9   55.89   39.90
 -31   7   9   74.19   45.00
   7  -9  31  105.09   25.60
  -7  31  -9   58.99   23.00
   7 -31   9   64.99   11.60
  -9  -7 -31   36.00   12.90
  -9   7  31   96.49   22.40
   9  -7  31   94.19   23.30
   9  31   7   28.80   15.10
 -31  -9  -7   35.80   35.90
  -9  31  -9  227.78   40.50
  -9  31   9  215.58   33.50
  -9   9  31  220.68   35.30
  31  -9   9  193.68   26.70
   9 -31   9  206.78   25.50
   9  -9  31  169.08   34.30
   1  31  11   10.20   12.70
 -31  -1 -11    7.70   39.80
  11   1  31   -2.40   11.50
  31 -11  -1    9.10    7.30
 -11 -31  -1   12.10    7.60
 -11  31   1   10.00   15.30
 -31   1  11    7.20   33.50
 -31 -11   1    6.30   27.90
   1 -11  31   -9.80   14.40
  -1  11  31   -4.20   11.40
  11 -31   1    5.70    6.30
  -1  31 -11    9.40   18.30
   1 -31  11    0.70    5.60
  -1 -11  31   12.90   16.10
  31 -11   1    4.20    6.80
   1  31 -11  -23.00   16.10
 -11 -31   1   -0.70    5.70
 -11  31  -1   -8.60   14.60
   1  11  31    5.00   11.90
 -31   1 -11  -18.30   38.80
  -1  31  11    1.00   12.00
  11  -1  31   -8.20   11.40
 -31  -1  11   -4.00   33.20
  -3  31 -11  150.58   36.80
  11 -31   3  159.28   19.80
 -31  -3 -11   87.89   46.70
  -3 -31  11  168.88   19.20
 -11 -31   3  108.19   18.90
 -11  31  -3  107.69   30.70
 -31  -3  11  106.79   44.20
  11 -31  -3  118.69   19.20
 -31   3 -11   53.99   46.20
  -5  31 -11  205.08   44.40
  11   5  31  295.47   38.40
   5 -11  31  260.57   39.80
 -11  31   5  266.07   35.90
  -5  11  31  317.07   37.10
 -31  -5 -11  240.38   65.39
 -11 -31   5  254.47   31.20
 -11  -5 -31  233.28   33.20
 -31  11   5  157.68   61.89
 -11  31  -5  227.58   42.20
   5  11  31  258.97   37.70
  31 -11   5  230.48   31.50
  11  -5  31  305.07   40.60
  11 -31   7   20.00    8.10
   7 -11  31   35.70   17.70
 -31   7  11   41.50   42.00
 -31  -7 -11   39.70   38.60
 -31 -11   7    6.00   26.00
  11   7  31   28.40   14.30
 -11  31   7   35.30   15.50
  -7  31 -11   34.30   20.90
  -7  11  31   22.10   13.20
  -7 -31  11   42.70    9.40
   7  31  11   31.30   14.20
 -11 -31   7   13.10    7.70
  -7  31  11   32.30   14.60
 -31  11   7    1.40   38.30
  11  -7  31   24.40   16.10
 -11  31  -7   20.90   19.20
 -31  -7  11    0.00   28.80
   7 -31  11   11.80    7.10
 -11   7  31   41.30   19.50
   7  11  31   26.90   13.80
 -11  -7 -31    8.60    9.40
  31  -9  11   -5.40    6.70
 -31  -9 -11  -11.10   36.40
 -11  31   9    4.80   12.20
  -9  11  31   -0.60   13.20
  11   9  31    9.60   13.20
   9 -11  31   -6.80   13.60
 -31   9  11  -19.80   38.10
  -9  31 -11    7.10   19.80
  -9 -11 -31    7.00    8.50
  11 -31   9    1.10    5.40
   9  31  11    3.20   13.60
 -31  11   9  -26.60   38.80
  31 -11   9    0.20    7.20
 -11  31  -9   -0.30   18.30
   9 -31  11    4.70    5.90
 -31 -11  -9  -37.50   31.40
  -9  31  11   10.20   12.60
 -11  -9 -31    3.90    8.60
   9  11  31    1.30   12.00
 -11   9  31    7.00   14.90
  11  -9  31    2.70   13.30
 -11  11  31  129.49   29.60
  11 -11  31  138.69   29.50
 -11  31 -11  178.88   39.50
  11  11  31  125.29   26.10
  11 -31  11   97.09   16.60
 -11 -31  11  100.99   17.10
 -11 -11 -31  137.59   21.50
 -11  31  11  163.48   26.20
 -31  11  11   51.29   44.90
  -1  13  31   10.40   11.90
 -13  31   1   19.00   15.50
  -1 -31  13   27.10    8.50
 -13 -31  -1   24.60    9.20
  31 -13  -1    8.40    7.00
   1  31  13   16.10   14.10
  -1  31 -13   13.90   20.10
  13   1  31   12.30   13.30
  13 -31   1    6.70    6.60
  -1  31  13   21.10   14.40
 -13  31  -1   11.30   16.20
  31 -13   1   13.20    7.40
   1 -31  13   21.00    8.00
  13  -1  31   18.10   15.30
   1  31 -13   13.80   21.30
 -13 -31   1   19.00    9.50
 -31 -13  -1   10.60   27.40
 -31  -1  13   24.20   34.40
   1  13  31   24.70   13.30
  13 -31  -1   14.20    8.00
 -31   1 -13  -12.20   37.80
 -13  31   3  405.86   49.40
  13   3  31  397.26   49.10
  -3  13  31  420.36   48.30
 -31  -3 -13  353.66   79.79
  -3  31 -13  349.87   55.59
 -31   3 -13  259.17   78.69
  13  -3  31  426.96   50.39
  -3  31  13  306.27   46.60
   3  13  31  414.76   48.50
  13 -31  -3  355.26   43.50
   3  31 -13  333.57   58.29
   5  31  13  434.26   55.29
  13   5  31  450.05   55.69
 -13  31   5  421.76   53.89
  -5  13  31  458.75   54.89
  13  -5  31  507.15   57.89
  -7  31 -13  128.09   31.20
 -13  31   7  108.09   25.50
 -31   7  13   97.39   47.60
   7  31  13   76.69   21.90
  13   7  31   99.99   24.70
  13 -31   7  137.59   17.40
  -7 -13 -31  104.19   19.60
  -7  13  31   98.79   23.30
 -31  13   7   73.79   47.70
 -13 -31   7  108.99   18.10
  13  -7  31   85.09   25.40
   7  13  31  104.79   23.90
  -7  31  13  127.99   24.30
 -13  31  -7  109.19   29.80
 -13  31   9   72.29   18.80
  -9 -13 -31   59.29   15.20
 -31   9  13   95.19   46.50
  13   9  31   68.59   19.40
  -9  13  31   43.40   16.20
   9  31  13   67.59   19.00
  -9  31 -13   38.30   22.70
   9  13  31   54.19   16.70
 -31  -9  13    3.30   26.00
  13  -9  31   40.10   18.80
 -31  13   9  -22.50   37.90
 -13  -9 -31   69.69   17.30
  31 -13   9   49.30   12.90
 -13 -31   9   51.59   12.40
   9 -31  13   29.90   10.10
 -31 -13  -9   34.40   37.10
  -9  31  13   78.79   22.40
 -13  31  -9   34.50   22.70
 -11 -31  13  392.06   39.90
 -13 -31 -11  357.06   52.89
 -31  11  13  259.27   74.39
  13  11  31  375.06   47.50
 -13  31  11  418.66   46.90
  11  13  31  308.07   44.80
 -31  13  11  218.48   71.89
 -13 -11 -31  269.27   40.10
 -11 -31 -13  433.16   51.19
 -11  31  13  313.57   44.20
 -13  13 -31  386.76   83.99
  31 -13  13  361.86   42.90
  13  13  31  354.56   48.40
 -13 -13 -31  376.26   43.90
 -31 -15   1   -4.70   24.30
  -1  15  31   29.90   14.40
  -1  31 -15   12.30   20.90
 -31   1  15   46.10   37.60
 -15 -31  -1   34.20   12.20
  15   1  31   21.40   14.30
   1  31  15   64.39   18.10
 -31  -1 -15   11.50   42.30
   1  15 -31    7.10   41.10
 -15  31   1   14.80   16.40
   1  15  31   27.90   14.30
  -1  15 -31   26.30   42.20
   1  31 -15  -10.30   21.20
 -15  31  -1   30.30   17.50
  15  -1  31   23.70   15.10
 -31   1 -15   22.20   41.90
  -1  31  15   47.50   16.70
   1 -31  15   28.20    9.00
  15 -31  -1   10.90    8.90
 -15 -31   1   53.49   14.00
 -31 -15  -1    6.40   24.90
   3  15 -31    7.70   48.10
  -3  15  31   35.90   14.70
  15   3  31   41.00   16.70
  -3  31 -15   33.60   24.00
 -31 -15   3   -2.10   23.50
 -31   3  15   28.60   37.50
 -31  -3  15    5.10   30.70
 -31   3 -15  -31.00   38.10
 -31 -15  -3   -2.30   26.00
 -15  31  -3   68.29   21.90
  31 -15   3   45.30   12.70
  15 -31  -3   62.49   14.00
  -3  31  15   33.60   15.40
  -3  15 -31   40.50   42.80
  15  -3  31   37.70   17.00
   3  15  31   50.69   16.30
   5  31  15  102.19   24.00
  15   5  31   76.59   23.60
 -31   5  15   41.00   36.80
  -5  15  31  100.39   22.50
  15 -31   5  103.59   14.90
  -5  15 -31  145.79   50.59
 -15  31  -5   33.00   22.70
   5 -31  15   77.79   13.50
  15  -5  31   88.79   26.50
  31 -15   5   61.29   15.10
 -15 -31   5   65.59   15.50
   5  15  31   95.09   23.40
  15 -31   7   -4.10    5.30
 -15  31   7   -4.30   12.50
   7  31  15  -11.30   12.00
 -31   7  15  -25.30   35.30
  -7  15  31   -4.60   11.10
  31  -7  15   -2.80    5.60
  15   7  31   -5.20   11.70
  -7  31 -15   -5.80   20.60
  -7 -15 -31   -0.40    8.90
  -7 -31  15   -0.70    5.30
  -7  15 -31    1.40   37.10
   7  15  31   -9.90   12.00
 -31 -15  -7    6.60   27.70
 -15  -7 -31    3.70    9.40
  -7  31  15   -3.20   12.30
 -31  15   7  -55.39   34.30
  31 -15   7   -3.00    6.90
 -15 -31   7   -2.00    7.10
 -15  31  -7   -4.20   19.30
 -31  -7  15  -17.60   24.50
  15  -7  31  -15.50   12.00
 -15 -31  -9   32.60   33.50
 -15  31   9   30.00   15.00
  15 -31   9   19.90    8.10
  -9 -31  15   40.50    9.60
  -9 -15 -31   32.30   10.90
 -31   9  15  -35.20   42.40
  -9  15  31   26.00   14.80
  -9  31 -15   32.50   24.20
 -31 -15   9   18.10   24.10
  15   9  31   28.30   16.20
   9  31  15   25.20   15.50
 -31  -9  15    5.80   25.70
 -15 -31   9   47.20   12.00
   9  15  31   13.70   13.90
  15  -9  31   26.70   18.00
  -9  31  15   35.80   16.60
 -15  -9 -31   28.60   11.70
 -15  31  -9    7.00   20.80
  -9  15 -31    2.50   38.80
 -31  15   9   30.20   48.00
  31 -11  15   23.30    9.80
 -31 -15  11   16.30   22.80
 -15 -31 -11   38.80   23.00
  15  11  31   26.80   16.40
 -11  31 -15    5.80   22.40
 -15  31  11   31.20   15.20
 -11 -15 -31   20.10   10.50
  15 -31  11   30.30    9.40
 -11  15  31   18.10   15.30
 -11 -31  15   35.90   10.20
 -15 -11 -31   51.89   13.80
 -31 -11  15   35.80   26.30
  11 -31  15   25.70    8.30
 -11 -31 -15   44.30   19.60
 -11  15 -31  -23.90   39.00
 -31  15  11   38.80   48.30
  31 -15  11   42.20   11.80
  11  15  31   36.90   16.20
 -11  31  15   16.70   15.10
 -15  31 -11   36.20   25.30
 -15 -31  11   26.60   10.20
 -13  31 -15   94.99   31.30
 -15 -31 -13   78.69   25.80
 -15  13 -31   20.50   43.20
 -13  15  31   98.69   29.30
  15  13  31   57.19   19.60
  15 -31  13   89.59   14.30
  31 -13  15   68.59   15.40
 -13 -15 -31   75.99   17.80
 -15 -13 -31   79.19   18.50
 -13  15 -31   68.39   47.20
 -13 -31 -15  139.99   31.40
 -15 -31  13   84.79   15.90
  31 -15  13   83.49   16.30
 -31 -13  15   40.80   24.20
  13  15  31   89.69   24.80
  -1  17  31  147.09   31.20
   1  31  17  257.47   33.60
  17   1  31  210.08   34.60
   1 -31  17  232.98   26.10
 -17 -31   1  201.18   28.60
 -17  31  -1  173.38   36.90
   1  17  31  191.68   31.90
  17 -31  -1  195.98   27.40
  -1  31  17  234.58   34.80
  17  -1  31  164.38   34.70
  -1  17 -31  255.57   66.19
  17 -31   3    2.50    7.10
  -3  31 -17   -2.00   27.00
  -3  17  31    5.70   12.00
  17   3  31  -11.20   12.20
 -31   3  17   39.50   31.70
 -31 -17   3    6.80   22.90
   3  31  17   -0.30   12.60
 -17  31   3    6.00   13.60
  31 -17   3    5.60    8.40
 -31  -3  17   19.20   27.50
 -31   3 -17  -31.80   46.30
 -17  31  -3   -0.60   17.10
  17 -31  -3   -2.40    8.50
  -3  31  17    0.60   12.50
  -3  17 -31   25.90   42.60
 -31 -17  -3   12.00   24.40
   3 -31  17    1.60    5.60
  17  -3  31    3.80   13.60
 -17 -31   3    7.50    8.30
   3  17  31    6.80   12.90
   5  31  17   19.50   13.80
 -31 -17   5    8.90   21.60
  31 -17  -5    1.70    5.90
  17   5  31    6.10   14.00
  -5  17  31    3.80   12.60
  -5 -31  17   11.90    6.70
 -31   5  17   42.80   41.10
  17 -31   5   12.30    7.90
  -5  31 -17    8.00   21.50
 -17  31   5    3.20   12.20
 -17  -5 -31    1.20   11.10
  -5  17 -31  -29.90   36.40
 -17 -31   5    4.10    8.30
 -31 -17  -5   -7.20   25.90
  -5  31  17    8.80   13.10
  31 -17   5    2.70    8.10
 -31  -5  17   -0.10   25.70
   5 -31  17    6.80    5.80
 -17  31  -5   -2.90   17.60
   5  17  31    6.80   12.20
  17  -5  31   -5.30   13.90
 -31   7  17  173.68   54.89
   7  31  17  109.79   25.30
  -7  17  31  126.69   26.10
  17   7  31  107.29   25.80
   7 -31  17   96.19   15.50
   7  17  31  124.69   25.90
 -31  -7  17   84.39   33.40
 -17  -7 -31  102.99   21.30
 -17  31  -7   77.39   27.10
  -7  17 -31   69.39   47.00
  17  -7  31  108.49   28.00
  -7  31  17  112.99   24.50
  -9  17  31  204.78   33.70
  17   9  31  209.88   33.90
 -17  31   9  141.29   32.70
   9 -31  17  200.68   24.60
   9  17  31  222.98   35.10
 -31  -9  17  256.87   47.40
 -17  31  -9  190.58   44.50
 -31  17   9  132.89   62.09
 -11  17  31    4.50   14.50
  17 -31  11   21.10    8.50
 -11  31 -17   14.50   25.50
 -11 -17 -31    7.30    9.90
  17  11  31   12.40   14.20
 -17  11 -31   -0.10   40.80
  31 -11  17    7.70    8.80
 -17  31  11    2.00   13.60
 -17  31 -11   -5.20   22.90
 -31 -11  17   12.70   24.40
 -17 -11 -31   -7.50   10.60
 -11 -31 -17   22.90   16.20
 -11  17 -31   22.10   43.30
  11  17  31    1.60   12.90
 -31  17  11    0.80   49.50
 -11  31  17    6.90   13.70
  31 -17  11   15.60    9.80
  11 -31  17    5.10    6.10
  -1  31 -19   16.90   26.70
 -31 -19   1  -17.80   18.80
   1  31  19    0.20   13.00
 -19  31   1  -17.00   14.60
 -31   1  19   34.30   35.10
  -1  19  31   -4.90   12.50
   1  19 -31   40.10   72.59
  -1 -31  19    0.70    6.50
  19   1  31    0.90   14.90
  19 -31   1    2.30    7.90
   1  19  31    2.30   12.90
   1 -31  19    1.50    6.40
 -19  31  -1   -7.70   16.50
  19  -1  31    5.80   16.00
  -1  19 -31    0.70   43.70
 -19 -31   1   -2.70    8.90
  19 -31  -1    0.00    8.80
 -31  -1  19   20.30   31.60
  -1  31  19   -0.10   13.50
  31 -19  -3   97.09   18.80
   3  31  19  110.69   25.80
  -3  19  31  109.99   25.20
  19 -31   3  106.79   19.10
  31 -19   3  111.09   19.60
  -3  31  19  144.59   27.30
  19  -3  31   99.79   30.70
  -3  19 -31  138.19   52.79
 -19  31  -3  146.09   33.00
   3  19  31  161.28   28.40
 -19  31   5   51.19   17.40
   5  31  19   80.89   20.60
  19   5  31   60.19   22.00
  19 -31   5   88.29   15.80
  -5  31 -19   56.29   27.40
  -5  19  31   80.29   24.20
   5  19  31   76.29   20.00
  -5  31  19   91.59   23.80
   5 -31  19   66.09   12.70
 -31  -5  19   70.19   33.50
  19  -5  31   70.29   22.60
 -19 -31   5   57.19   15.80
  31 -19   5   88.39   16.70
  -5  19 -31   10.10   43.80
 -19  -5 -31   40.70   18.50
  19 -31   7    3.10    7.60
 -31 -19   7    1.70   18.50
   7  31  19   17.00   15.60
  19   7  31    9.60   15.60
  -7  19  31   14.00   13.10
 -19  31   7   10.70   14.00
  -7  31 -19    4.20   25.20
 -19  31  -7   -3.30   21.40
  -7  19 -31    9.50   41.70
 -19  -7 -31    9.70   13.00
  -7 -31 -19    1.40   13.60
   7  19  31    6.10   13.40
  -7  31  19    2.30   13.80
 -31  -7  19   13.00   24.40
 -19 -31   7   13.30    9.80
  31 -19   7   26.50   10.70
   0 -32   0  732.53   81.19
   0   0  32  801.72   86.09
 -32   0  -2  169.58   59.69
 -32   0   2  215.88   64.19
  -2 -32   0  168.58   23.30
  -2  32   0  188.28   30.60
   0  -2  32  179.58   30.20
   0   2  32  151.58   29.80
   2  32   0  181.78   28.10
   0  32   2  198.48   28.50
   2   0  32  173.88   30.50
   0 -32   2  174.78   23.40
 -32   2   0  205.28   62.79
  -2   0  32  188.08   31.70
   0 -32  -2  163.48   24.80
  -2   2  32   24.50   14.90
 -32   2   2   -7.60   37.50
  -2 -32  -2    5.80    6.30
  -2  -2  32   13.90   14.30
   2  32   2   18.30   14.00
 -32   2  -2   27.60   42.00
 -32  -2   2   44.90   41.50
  -2  32  -2   15.50   14.70
  -2  32   2    6.20   10.70
   2 -32  -2    5.00    8.30
   2  -2  32   12.00   12.70
   2   2  32    6.20   12.70
   2  32  -2   -8.90   12.20
 -32   0  -4   52.89   44.50
 -32   0   4   -9.40   38.40
  -4 -32   0    0.10   10.70
  -4  32   0   29.00   15.80
   0  -4  32   12.70   13.90
   0   4  32   15.70   13.80
   4 -32   0   18.70   10.40
   0  32   4   -2.10   11.20
   4   0  32   14.40   12.00
  -4   0  32   25.70   15.90
   0 -32   4   17.70    7.60
   0  32  -4   16.00   16.00
 -32   4   0   -1.70   37.10
 -32  -4   0    9.30   35.10
  -4  -2  32   28.90   15.90
   4 -32   2   47.80   10.20
  -2 -32   4   38.10    9.80
  -4  32   2   30.80   15.10
 -32   2   4   62.59   46.30
  -4 -32  -2   16.70    9.10
   2  -4  32   29.50   15.00
  -2   4  32   38.10   15.30
   4   2  32   28.20   14.60
 -32   4  -2    1.20   39.40
   2  32   4   26.70   14.10
  -2  32  -4   34.90   17.50
   4  32   2   25.20   15.00
   4  -2  32   26.20   14.50
   2 -32   4   42.10   10.50
 -32  -4  -2   14.30   37.30
  -4 -32   2   31.30    9.50
   2  32  -4   17.60   16.60
  -2  32   4   39.80   15.40
   2   4  32   46.70   15.20
  -4   2  32   36.20   17.10
 -32  -2   4   15.10   37.20
 -32   4   2   -3.50   39.70
  -4  32  -2   33.00   16.70
  -2  -4  32   21.10   15.40
  -4  32   4  163.98   29.60
 -32  -4  -4  191.08   58.79
   4  32  -4  212.28   52.49
 -32   4   4  292.77   69.99
  -4  -4  32  216.18   35.00
   4   4  32  234.18   34.10
   4  32   4  229.58   34.20
   4  -4  32  191.48   32.60
   0   6  32  203.48   30.90
   6   0  32  193.18   31.20
 -32   0  -6  178.58   60.39
 -32   0   6  227.78   62.69
  -6 -32   0  173.48   24.80
   0  -6  32  227.38   34.30
   0  32  -6  206.98   36.60
   6 -32   0  206.28   25.30
  -6   0  32  176.28   33.10
   2  -6  32    8.70   13.30
 -32  -2  -6   39.00   41.00
   2  32   6   18.50   13.90
   6 -32   2    6.60    6.70
  -6  32   2   20.40   14.40
 -32   6  -2  -16.40   35.80
  -2   6  32    6.60   12.50
  -2  32  -6   16.50   17.30
 -32   2   6   -1.30   36.60
 -32  -6   2    5.80   31.60
   6   2  32   21.40   13.40
  -6  -2  32   27.30   17.30
  -6 -32  -2   13.40    9.60
  -2  -6  32    8.20   14.20
   2 -32   6   16.50    7.00
   6  -2  32   20.70   13.40
 -32   2  -6   -3.30   40.50
  -6   2  32    5.10   14.50
  -2  32   6   21.80   14.00
   6  32   2    8.40   15.50
   2  32  -6   25.40   17.50
 -32  -2   6   27.00   39.40
 -32  -6  -2   13.00   36.00
  -6  32  -2   17.00   15.90
   2   6  32   16.50   12.80
   6 -32  -2    7.20    7.10
  -4  32  -6    4.20   16.40
 -32  -6   4   13.50   35.00
  -4 -32   6   29.60    8.80
   4  -6  32   31.90   15.70
  -6  -4  32   27.20   17.60
  -4   6  32   58.39   17.90
   4  32   6    7.60   12.40
   6   4  32   22.80   14.70
  -6  32   4   26.90   13.20
  -6  32  -4   18.40   16.90
   6  -4  32   15.00   13.90
  -4  -6  32   30.50   18.60
   6  32   4   23.70   14.00
  -6   4  32   13.00   13.60
   4   6  32   37.80   15.60
 -32  -6  -4   44.60   39.20
  -4  32   6   23.80   13.30
   4  32  -6   49.40   20.80
  -6 -32   4   30.30    9.20
 -32   4  -6   28.00   41.30
 -32   6   6    1.20   39.50
 -32  -6  -6   18.30   35.90
 -32  -6   6   13.60   33.80
   6 -32   6    2.40    5.50
   6  -6  32   10.90   14.20
   6   6  32   -1.70   12.10
   6  32   6    0.60   13.30
  -6  32   6    2.00   12.20
  -6  32  -6    5.20   16.50
  -6 -32   6   -0.50    5.20
  -6  -6  32   12.60   18.70
  -6   6  32   -1.60   13.10
   0   8  32  626.64   67.49
 -32   0  -8  437.26   94.59
   0  -8  32  520.05   69.79
   8   0  32  622.44   68.19
  -8   0  32  601.34   70.89
  -2 -32   8  301.07   35.10
   2  -8  32  272.67   43.50
  -8 -32  -2  301.37   36.30
  -2  32  -8  230.58   43.80
   8 -32   2  331.87   35.70
  -2   8  32  247.28   39.20
 -32  -8   2  412.56   68.29
   8   2  32  243.68   39.90
  -2  -8  32  293.67   44.30
   8  -2  32  321.27   42.30
   2  32  -8  387.86   47.10
  -2  32   8  337.47   41.50
  -8   2  32  294.07   46.40
 -32  -8  -2  367.86   68.19
   2   8  32  305.17   40.80
  -4  32  -8   62.49   22.80
   4  32   8   75.79   20.90
   4  -8  32   41.60   18.20
 -32   4   8  155.48   54.99
   8   4  32   44.40   17.50
  -8  32   4   67.99   17.20
  -4   8  32   53.89   17.70
   8  -4  32   63.19   18.90
  32  -8   4   46.50   12.20
  -8   4  32   47.10   20.00
 -32   4  -8   53.19   45.10
 -32  -8  -4    5.70   33.70
 -32   8   4    4.80   39.60
  -4  -8  32   62.19   23.20
   8  32   4   50.09   19.10
  -8  32  -4   87.29   23.70
  -4  32   8   79.99   21.40
   4 -32   8   72.79   12.60
   4  32  -8   33.90   20.50
   4   8  32   41.10   16.20
  -8  32   6  264.47   35.50
   6  -8  32  228.68   37.00
   8   6  32  278.17   36.80
  -6   8  32  281.87   36.40
  -6 -32   8  218.98   28.50
   8  32   6  186.48   36.80
  -8   6  32  227.18   36.90
 -32   8   6  133.19   57.69
   6   8  32  269.27   36.80
 -32  -8  -6  344.27   66.39
   8  -8  32  742.43   77.79
   8   8  32  605.64   74.59
  -8   8  32  631.84   75.89
  10   0  32  183.88   28.90
 -10 -32   0  117.39   19.90
   0  32  10  184.28   28.20
   0  32 -10  150.98   33.90
  10 -32   0  139.29   20.20
 -10  32   2   19.10   15.30
  -2  10  32    7.90   12.40
  10 -32   2   12.20    7.20
  -2  32 -10    3.30   20.70
   2 -10  32    4.00   15.10
  10   2  32   26.30   14.00
   2  32  10    5.10   12.30
   2  32 -10   35.80   22.70
   2  10  32   12.20   12.50
  -2 -10  32   -8.80   15.90
 -10 -32   2   11.10    6.70
 -32 -10  -2  -17.00   26.90
 -10  32  -2    8.50   15.80
  -2  32  10   10.60   12.10
 -32  -2  10   14.20   35.50
 -32   2 -10   14.30   40.60
  10  -2  32   17.20   13.80
  10 -32  -2   13.80    8.20
  32 -10   2    7.90    6.50
 -10  32   4   31.20   14.00
  -4  32 -10    7.90   17.10
  -4 -32  10   23.60    8.20
  -4  10  32   22.50   14.00
  10   4  32   32.00   15.50
 -32   4  10   75.79   45.20
 -32 -10   4   16.30   30.80
   4 -10  32   16.00   15.20
 -32  -4  10   55.09   38.50
 -32   4 -10   35.10   43.40
 -10   4  32   41.00   21.90
   4  10  32   33.70   14.30
 -10  32  -4    0.50   16.40
 -32  10   4   28.90   39.70
  -4 -10  32   34.20   22.30
  10  -4  32   32.70   16.30
  -4  32  10   37.40   15.40
  -6  32 -10  -10.30   16.10
  -6 -32  10    5.70    6.30
   6 -10  32    3.30   14.20
 -32  -6 -10   22.80   39.90
   6  32  10   -4.60   12.20
 -10  32   6   16.70   13.20
  10 -32   6    6.50    6.30
  -6  10  32    7.00   13.20
  10   6  32   -8.80   11.70
 -32   6  10   21.60   38.60
  -6  32  10   12.40   13.70
 -32 -10  -6    0.60   30.20
  32 -10   6    7.20    7.60
 -32  10   6  -14.60   39.00
 -10  32  -6    0.20   17.50
 -10   6  32   11.10   17.10
 -32  -6  10   -1.90   30.10
   6 -32  10    3.90    5.60
   6  10  32    0.40   11.40
  10  -6  32   12.00   13.90
  -8 -32  10   88.69   15.60
   8  32  10  154.08   27.90
 -10  32   8  130.29   26.20
   8 -10  32  141.79   28.20
 -32  -8 -10   52.49   40.80
 -32  -8  10   76.59   36.90
 -10  32  -8  100.59   31.30
 -32 -10  -8  125.99   42.10
 -10   8  32  173.38   30.80
  10  -8  32  134.89   27.60
   8 -32  10  110.39   16.60
  32 -10   8  110.39   18.10
 -32 -10 -10   24.30   38.70
  10 -32  10   -1.30    5.30
 -10  10  32  -12.20   14.40
 -10  32 -10   -9.10   18.10
 -32  10  10  -26.30   36.90
 -10 -32  10    2.30    5.30
 -10 -10 -32   -5.50    8.20
  10  10  32   -1.80   12.50
  10 -10  32    2.30   14.70
 -10  32  10   -2.50   11.60
 -32 -12   0   15.50   27.60
 -32   0 -12   48.30   46.30
  12 -32   0   38.90   10.40
   0  32 -12   22.10   19.90
 -32   0  12   93.69   42.00
 -12 -32   0   34.30   10.60
 -12  32   0   81.59   23.60
   0 -12  32   44.60   21.30
  12   0  32   24.30   14.60
  12   2  32    9.90   13.30
  -2  12  32    0.50   11.80
  12 -32   2    3.00    6.30
 -32  -2 -12    2.10   40.30
   2  32  12   -2.90   12.40
 -12  32   2    3.60   13.60
  -2  32 -12    2.90   18.10
   2 -12  32   -4.40   16.30
 -12  32  -2    8.80   15.70
 -32  -2  12   29.20   34.80
   2  32 -12  -13.90   20.30
  12 -32  -2    4.40    7.20
  -2  32  12   -1.70   11.20
  12  -2  32   -5.00   12.90
 -32   2 -12   -2.30   39.40
  32 -12   2    6.20    6.60
   2  12  32   -0.50   11.90
 -32 -12  -2   -6.20   27.40
 -12 -32   2   -0.50    6.20
   2 -32  12    7.00    6.30
  -4  12  32  177.38   27.90
   4 -12  32  148.39   33.10
 -32  -4 -12  101.89   53.29
 -32   4  12   78.09   44.00
  12   4  32  148.69   27.00
 -12  32   4   95.09   24.20
 -12  32  -4  156.38   32.10
 -32   4 -12   57.69   47.90
  32 -12   4  115.69   19.90
   4  12  32  180.98   27.40
  12  -4  32  155.28   30.00
   6 -12  32   15.80   16.40
 -32   6  12   27.90   42.10
  -6  12  32   29.90   14.40
  12 -32   6   16.20    7.10
   6  32  12    8.70   13.40
 -32  -6 -12   12.00   38.30
  12   6  32   17.90   14.90
 -12  32   6   23.90   14.10
  -6  32 -12    3.60   19.10
   6 -32  12   13.90    6.90
  12  -6  32   18.60   15.30
  -6  32  12   29.00   14.40
 -32 -12  -6   -1.10   28.40
   6  12  32   18.70   13.40
 -32  12   6   58.49   47.00
 -12  32  -6    4.00   18.80
  32 -12   6   28.10   10.10
 -12 -32   6   18.90    8.40
 -12  32   8   52.69   16.70
  12   8  32   27.60   14.80
  -8 -32  12   44.60   10.30
  -8  32 -12   56.59   24.90
 -32 -12   8   20.20   28.50
 -32   8  12   46.10   42.90
  -8  12  32   44.10   16.70
   8  32  12   26.40   16.60
  12  -8  32   25.40   16.60
 -32 -12  -8   17.10   33.20
  -8  32  12   65.79   18.10
 -32  12   8   73.69   49.70
 -12 -32   8   29.70    9.60
 -12  32  -8   15.70   20.70
 -32  -8  12    1.40   26.60
  32 -12   8   22.80    9.40
   8  12  32   44.20   15.90
   8 -32  12   41.40   10.10
 -12  -8 -32   31.10   11.40
 -32 -12  10    9.70   24.90
 -10  12  32   16.00   15.50
  12 -32  10   36.10    9.70
  12  10  32   36.40   16.50
 -10 -12 -32    7.90    9.60
 -32  10  12   42.80   44.60
 -10  32 -12   25.30   28.00
 -10 -32  12   10.90    6.70
 -12  32  10   28.10   14.80
 -10  32  12   22.60   13.90
 -32  12  10   22.80   43.40
  12 -10  32   27.30   17.60
  10  12  32   20.90   14.60
 -12  32 -10   41.30   25.50
 -32 -10  12   21.30   28.00
  32 -12  10   17.70    9.50
 -12 -10 -32   16.90   10.30
 -12 -12 -32   36.40   12.60
 -32  12  12   39.40   47.60
 -12  12  32   44.80   19.70
  12  12  32   89.09   24.10
 -12  32 -12   78.49   28.40
   0 -32  14   81.79   13.50
   0  32 -14   54.39   24.30
 -32 -14   0   21.70   28.70
  14 -32   0   56.69   13.90
 -14  32   0  118.09   27.90
  14   0  32   96.19   24.80
  32 -14   0   87.29   15.80
   0  14  32   92.39   22.30
  32 -14  -2    0.90    5.80
 -32   2  14    2.30   35.30
   2  14 -32   16.10   44.60
  -2  14  32   -2.00   11.30
 -32 -14   2   20.40   26.80
  -2  32 -14   -7.40   19.90
 -14  32   2   -5.80   13.50
 -32  -2 -14    1.50   43.30
  -2 -32  14    2.00    5.90
   2  32  14   -3.30   11.40
  14   2  32    3.50   12.30
  14 -32   2   -1.30    5.60
   2  14  32   -2.20   12.10
  -2  32  14    4.30   12.90
 -14  32  -2  -15.30   14.40
 -32  -2  14  -13.90   28.90
 -32   2 -14  -23.70   42.80
  14 -32  -2   -1.70    7.70
 -14 -32   2    6.70    7.80
  14  -2  32    0.50   13.00
  14   4  32   61.09   19.20
 -32 -14   4   13.10   27.10
  -4  14  32   78.19   19.10
   4  32  14   35.20   16.80
 -32   4  14  111.79   47.70
 -14  32   4   78.99   20.80
  -4  32 -14   62.99   24.90
  32 -14   4   59.09   14.20
  -4  32  14  102.59   23.00
  14  -4  32   95.09   22.90
 -14  32  -4  103.89   30.90
   4  14  32   73.89   19.50
 -14 -32   4   61.09   14.10
 -32   4 -14   16.60   42.50
 -32 -14  -4   43.10   29.70
 -32 -14   6    8.20   25.10
  -6  14  32   -0.30   11.70
 -32   6  14   -5.50   36.20
  -6 -32  14   -1.70    5.30
 -14  32   6    3.40   12.90
  14   6  32   -2.10   12.20
  -6  32 -14   -2.20   19.30
  14 -32   6   -0.50    5.50
   6  32  14   -0.70   12.80
  14  -6  32   -7.50   12.50
 -14  32  -6   -2.00   18.80
  32 -14   6    0.70    6.90
 -14  -6 -32   -8.10    9.20
   6  14  32    2.90   12.00
  -6  32  14   -1.50   12.30
 -32 -14  -6   24.80   30.00
 -14 -32   6   -5.20    6.60
 -32  14   6   10.70   38.00
  14   8  32   67.39   20.30
  -8  32 -14   38.10   23.60
  -8  14  32   60.29   18.30
   8  32  14  103.79   24.90
 -32   8  14   33.30   44.70
 -14  32   8   75.79   20.00
   8 -32  14   48.60   11.60
  14  -8  32   61.69   21.30
  -8  32  14   95.49   23.50
 -14  32  -8  129.29   33.30
 -32 -14  -8   11.00   33.50
  -8  14 -32   20.60   40.00
   8  14  32   74.59   21.90
 -14 -32   8   85.29   14.70
 -10  14  32    6.90   14.50
  14 -32  10    2.30    6.40
 -10 -14 -32   -0.60    8.80
 -10 -32  14    0.20    5.80
 -10  32 -14   30.50   23.40
  14  10  32   12.50   13.60
  32 -10  14    0.90    7.30
 -32  10  14   13.00   42.90
 -14  32  10   -0.90   13.80
  32 -14  10    0.10    7.40
  10  14  32    1.60   13.30
 -14 -10 -32   -4.00    9.20
 -10  14 -32  -16.50   37.40
  10 -32  14   -0.80    5.60
 -10  32  14    4.30   12.60
 -32  14  10   -6.20   44.50
 -14  32 -10   -6.60   20.70
 -12 -14 -32   28.10   11.10
  14  12  32   46.40   18.40
 -12  32 -14   12.00   22.80
 -32  12  14   73.79   51.19
 -14  32  12   60.09   18.00
 -32 -14  12   -5.20   22.10
 -14  12 -32   22.40   42.90
 -12  14  32   59.99   20.80
  12  14  32   34.80   16.70
 -14  32 -12   31.20   24.40
 -14 -12 -32   16.80   10.70
 -14 -32  12   18.30    8.30
 -12  14 -32   29.90   42.00
 -12  32  14   53.89   16.50
 -32 -12  14  -10.10   23.60
  12 -32  14   40.20    9.90
 -32  14  12   79.39   50.89
   0  16 -32  302.27   81.89
   0  32 -16  381.26   60.99
   0  16  32  447.66   48.80
  16   0  32  394.96   50.39
  32 -16   0  356.96   43.40
 -16  32   0  307.47   48.70
  -2  16  32  105.29   26.10
  16   2  32  121.89   29.20
  -2  32 -16  219.28   43.20
  32 -16  -2  135.89   21.50
  16 -32   2  155.08   21.40
 -16  32  -2  213.68   34.70
  -2  16 -32  193.88   61.79
  16  -2  32  134.89   29.90
   2 -32  16  126.39   19.40
  -2  32  16  174.08   29.40
   2  16  32  145.19   28.50
  -4  16  32   -4.30   11.90
 -32   4  16   20.90   36.00
  -4  32 -16   -3.40   22.40
 -32 -16   4   -1.50   24.40
 -16  32   4    0.80   12.30
  16 -32   4    6.30    6.50
  -4 -32  16    5.90    6.60
   4  32  16   17.40   14.90
  16   4  32   12.80   14.20
  32 -16  -4    1.60    5.40
 -32   4 -16  -13.20   47.10
 -32 -16  -4  -26.10   25.30
 -16 -32   4    3.00    8.00
  -4  32  16   21.50   13.80
   4  16  32    4.20   13.60
  -4  16 -32   15.10   42.60
  16  -4  32    2.40   14.30
 -32  -4  16   24.50   31.80
 -16  32  -4   -1.40   17.30
  32 -16   4    1.50    8.10
 -16  -4 -32    3.40   19.30
  16   6  32   65.29   19.80
  -6  16  32   71.19   18.90
 -32 -16   6   38.70   26.10
 -32   6  16  128.39   49.30
 -16  32   6  103.49   24.80
  -6  32 -16   61.49   27.20
 -16  32  -6   38.30   23.90
  -6  32  16   58.29   17.50
 -32 -16  -6   13.80   30.90
 -16 -32   6   47.40   13.90
  16  -6  32   60.99   20.20
  -6  16 -32   38.00   44.30
   6  16  32   45.20   17.30
 -32   8  16  299.17   77.69
  -8  16  32  347.27   50.09
  16   8  32  385.46   51.19
 -16  32   8  404.66   50.19
 -16  32  -8  483.35   59.69
   8 -32  16  351.96   43.20
  -8  16 -32  435.36   84.19
  -8  32  16  435.96   50.69
  16  -8  32  412.46   54.69
  32 -10  16  114.39   20.00
  16  10  32  107.29   31.10
  16 -32  10  144.99   18.90
 -32  16  10   61.69   55.49
 -10  16 -32   29.30   55.09
 -16 -10 -32  137.09   36.70
 -16  32 -10   66.79   43.90
 -10  32  16  131.29   27.30
  10  16  32  143.89   27.10
 -18  32   0  398.06   50.19
   0  18  32  306.87   46.20
   0  32  18  420.86   48.40
  18   0  32  339.37   50.59
   0  18 -32  370.36   93.79
   0 -32  18  352.46   41.20
  -2 -32  18   82.99   14.80
 -32   2  18   23.70   36.00
 -32 -18   2   45.90   25.90
  32 -18  -2  100.79   17.20
  -2  18  32  125.29   25.10
   2  32  18  126.69   26.10
 -18  32   2  132.89   28.40
  -2  32 -18   37.40   29.30
 -32  -2  18   37.90   35.80
 -18  32  -2   48.80   22.20
  18 -32  -2   94.89   18.70
  -2  18 -32   46.80   48.20
  32 -18   2   89.49   17.20
  -2  32  18  131.69   25.40
  18  -2  32  142.29   30.10
  -4  18  32    8.90   13.80
  -4  32 -18    4.20   23.20
  18 -32   4    2.10    7.50
 -32 -18   4   -5.50   21.80
 -18  32   4    3.50   12.80
   4  32  18   -6.10   12.80
  32 -18  -4   -0.40    6.00
  18   4  32    4.90   15.50
 -32   4  18    9.00   34.80
  -4 -32  18    3.60    6.40
  18  -4  32   -2.80   15.00
 -32 -18  -4   25.90   26.50
  -4  18 -32   -5.10   42.40
   4  18  32    4.60   13.50
 -18 -32   4    0.40    8.20
  -4  32  18    7.70   14.30
  32 -18   4   13.40    9.30
 -18  32  -4   -4.90   17.40
   6  32  18   73.89   27.70
  -6  32 -18   81.99   40.80
 -32 -18   6  121.99   33.70
  18   6  32  108.09   30.80
   6 -32  18   83.19   15.50
  -6  18 -32  118.29   86.19
 -18  -6 -32  157.98   34.90
  -1  33  -1  565.44   68.39
   1 -33  -1  517.65   63.19
   1  -1  33  656.03   69.59
   1   1  33  641.94   69.19
   1  33  -1  570.04   66.99
   3  33  -1  104.09   23.00
  -3 -33  -1   66.39   13.70
  -1  33  -3   57.09   19.80
  -3  -1  33   58.69   18.70
  -3  33   1   71.09   20.30
  -1   3  33   91.99   24.10
   1  -3  33   88.49   22.50
   1  33   3   74.49   18.80
 -33   1  -3   29.70   40.40
   3  33   1   82.19   20.50
   1 -33   3   54.69   12.70
   1  33  -3   94.19   22.10
   1   3  33   91.49   22.50
  -3 -33   1   48.30   12.30
 -33  -3  -1   23.70   40.70
 -33   3   1  108.19   52.79
  -3  33  -1  105.99   23.70
  -1  -3  33   58.29   18.40
  -1  33   3   36.60   16.20
   3 -33   3   19.40    7.30
  -3 -33   3   14.90    7.50
  -3  -3  33   13.00   14.50
  -3   3  33   36.50   15.40
  -3  33  -3   11.00   15.30
  -3  33   3   26.00   13.60
 -33  -3  -3   48.30   43.10
 -33  -3   3    1.70   36.80
 -33   3  -3  -12.80   37.00
 -33   3   3   -9.00   38.70
   3  33   3   26.60   15.20
   3  -3  33   12.80   13.90
   3   3  33   10.70   13.80
   3  33  -3   20.00   14.10
 -33  -1  -5  174.98   55.79
   5 -33   1  135.29   17.40
  -1   5  33  101.19   28.00
   1  -5  33  114.89   26.70
  -5  -1  33  118.09   29.20
 -33   5  -1   81.99   50.19
  -1  33  -5   90.19   27.60
 -33  -5   1   43.70   40.70
   5   1  33  106.39   23.90
   1  33   5   73.39   21.30
   5  33  -1  103.99   27.80
 -33   1  -5   51.59   45.60
   5  -1  33  111.89   24.70
   1   5  33  110.89   24.70
   5 -33  -1   99.89   16.80
   1  33  -5  107.89   28.00
  -1  -5  33  123.79   27.90
  -5   1  33  106.19   28.30
 -33   5   1   51.69   45.00
  -5  33  -1  142.89   26.40
 -33   3   5   14.60   40.30
  -5  -3  33   16.10   17.70
  -3  33  -5   -3.20   14.30
   3  33   5    4.90   12.40
  -3   5  33   18.10   13.80
 -33  -3  -5   26.50   37.80
   3  -5  33   20.30   15.10
 -33  -5   3   36.10   36.90
  -5  33   3   13.40   11.80
   5   3  33   19.30   13.90
   5  33  -3    4.50   14.80
  -3 -33   5   13.80    7.40
 -33   3  -5   24.20   39.70
  -5  33  -3   31.40   16.70
 -33  -3   5   12.20   34.80
 -33  -5  -3    6.50   34.40
  -5   3  33   16.00   15.30
  -3  -5  33   21.60   17.40
  -3  33   5    0.60   11.90
  -5 -33   3    3.60    5.70
   5  33   3   12.90   13.60
   3  33  -5   20.90   16.50
 -33   5   3   12.10   40.60
   3   5  33   18.20   14.00
   5  -3  33   13.50   13.40
  -5  33  -5   21.00   17.20
  -5 -33   5   21.90    7.70
   5 -33   5   15.80    7.30
  -5  33   5   41.80   15.50
 -33  -5  -5  -10.10   35.00
 -33  -5   5   28.00   37.40
  -5  -5  33   23.90   18.50
  -5   5  33    6.90   13.50
   5   5  33   25.50   14.80
   5  33   5    2.20   12.50
   5  -5  33   16.30   14.60
  -7  -1  33  745.63   84.79
  -1   7  33  775.02   80.99
  -1  33  -7  649.14   81.99
   7   1  33  783.92   81.29
  -7  33   1  766.82   81.09
   1  -7  33  677.73   82.89
   1 -33   7  613.34   75.19
   7  -1  33  634.24   79.89
  -1  -7  33  786.62   85.19
  -7   1  33  770.52   83.59
   1   7  33  789.22   81.19
 -33   7   1  556.74  108.59
 -33   1  -7  855.81  115.79
   1  33  -7  609.44   81.49
 -33   3   7  136.49   53.19
  -3  33  -7  203.78   33.60
 -33  -3  -7   54.29   45.00
  -7  -3  33  183.88   37.10
   3  -7  33  135.49   29.00
  -3 -33   7  168.68   19.90
  -7  33   3  111.39   25.00
  -3   7  33  136.39   26.80
   3  33   7  150.28   27.40
 -33   7  -3   74.29   51.69
   7   3  33  114.59   26.30
 -33  -7   3   55.99   40.00
   7  33   3  154.48   30.20
   7  -3  33  136.39   27.70
 -33   7   3  118.19   54.59
  -7   3  33  102.09   30.10
   3   7  33  147.89   26.60
  -3  33   7  164.28   27.40
   3  33  -7   99.59   28.20
 -33  -5  -7   86.79   47.40
  -5   7  33  134.49   27.90
   5  33   7  112.19   27.30
  -5  33  -7  164.08   31.50
 -33   5   7   99.89   50.89
   5  -7  33  157.78   28.60
   5   7  33  145.09   27.50
   5 -33   7  151.18   18.60
 -33   7   5   86.29   50.89
  -7   5  33  119.09   27.90
 -33  -7  -5   43.70   40.30
   7  -5  33  122.39   28.10
  -7  33  -5  133.99   29.50
 -33  -5   7  101.19   43.60
  -5  -7  33   89.99   27.40
  -7  33   7  665.03   79.49
 -33  -7  -7  802.62  107.89
  -7   7  33  628.74   79.89
   7   7  33  707.43   80.39
   7  -7  33  783.52   82.39
  -9  33   1  407.46   57.69
   9   1  33  489.95   58.69
   9 -33   1  506.95   53.19
   1  -9  33  461.25   60.49
  -1   9  33  504.35   57.59
 -33  -1   9  381.76   78.89
  -9  33  -1  487.05   58.89
   9  -1  33  546.05   59.19
 -33  -9  -1  341.17   73.89
   1  33  -9  437.86   62.09
  -9   1  33  530.05   62.99
  -1  -9  33  438.46   60.69
   1   9  33  558.74   58.49
 -33   3   9   36.40   42.50
 -33  -9   3   26.10   32.70
  -3  33  -9   96.99   28.40
   3  -9  33   43.00   18.30
  -3   9  33   64.89   17.60
   3  33   9   84.89   21.30
   9   3  33   70.19   19.10
  -9  33   3   85.69   20.90
 -33  -3  -9   32.70   42.30
  -9  33  -3   30.30   17.60
  -9   3  33   14.80   19.00
  -9 -33   3   53.99   11.80
   9  -3  33   66.59   19.20
  -3  33   9   68.79   18.00
 -33  -3   9   45.00   36.40
   3   9  33   45.90   16.90
   3  33  -9   43.30   21.50
  -3  -9  33   71.19   24.40
 -33   9   3   38.80   43.80
 -33   3  -9   -1.70   41.90
  -9  33   5   77.69   21.00
   9   5  33   81.99   23.00
 -33  -5  -9   69.49   45.40
   5  -9  33   94.39   25.00
  -5   9  33   69.39   21.30
  -5  33  -9  113.29   29.50
  -9  33  -5   53.19   22.20
  -5  -9  33   78.69   31.30
  -9   5  33   71.99   21.80
 -33   5  -9   27.70   41.70
  -9 -33   5   85.39   13.90
   9  -5  33   91.59   24.30
  -5  33   9   58.79   18.00
   5   9  33   97.59   22.70
 -33   9   5   33.20   45.90
 -33  -9  -5   29.50   35.90
  -7   9  33  492.15   55.29
   7  33   9  393.56   54.19
 -33  -7  -9  496.85   83.09
   9   7  33  514.45   56.09
   7  -9  33  418.46   55.89
   9 -33   7  419.46   48.70
  -9   7  33  501.95   58.89
   9  -7  33  453.55   56.19
  -7  33   9  426.26   53.99
 -33  -9  -7  300.97   71.79
 -33  -9  -9  243.48   64.99
  33  -9   9  308.47   38.30
  -9  33  -9  369.76   50.99
  -9   9  33  394.66   46.90
   9  -9  33  311.97   45.10
   9   9  33  290.77   43.30
  11   1  33  277.17   37.70
  -1  33 -11  158.98   39.40
   1 -11  33  261.87   40.50
  11 -33   1  226.28   29.10
 -11  33   1  253.77   36.60
 -11  33  -1  291.77   38.50
 -33  -1  11  214.88   60.19
  11  -1  33  264.47   38.00
  11 -33  -1  185.58   28.50
  -1 -11  33  201.68   42.20
   1  11  33  293.47   35.90
  11   3  33   -5.20   12.30
 -33   3  11  -22.60   34.90
   3  33  11   -2.20   12.30
  -3  11  33  -12.30   11.30
 -33  -3 -11    3.70   41.50
 -33 -11   3   15.40   29.90
  -3  33 -11   -5.70   18.30
  11 -33   3    2.50    5.60
   3 -11  33  -10.50   13.90
 -11  33   3   -7.20   10.60
  -3 -33  11    0.70    5.60
  33 -11   3   -0.70    5.30
 -33  -3  11    6.80   34.60
   3 -33  11    0.20    5.50
 -33  11   3   25.30   41.60
  -3  33  11   -1.20   11.80
  -3 -11  33  -12.60   20.20
 -33   3 -11   -2.40   40.60
 -11  33  -3    2.60   15.10
   3  11  33    3.60   10.30
  11  -3  33   -3.00   12.80
 -11 -33   3   -1.20    5.90
   5  33  11    1.90   12.80
 -11  33   5   -5.60   11.20
  -5  11  33   -6.20   11.50
  -5 -33  11   -0.40    5.40
  11 -33   5   -1.90    5.80
 -33  -5 -11   -9.60   39.20
  11   5  33    5.30   12.80
 -33   5  11   14.50   36.30
   5 -11  33   -1.40   15.30
  -5  33 -11   -4.70   17.70
 -33 -11  -5   21.60   32.20
 -11  33  -5    0.40   16.70
 -33  11   5   15.60   40.80
  33 -11   5    2.50    6.20
  -5  33  11    4.80   12.50
 -33   5 -11   -9.30   39.40
   5  11  33    3.50   12.60
  11  -5  33    5.70   13.30
  -7  11  33  197.88   31.60
   7  33  11  134.29   30.00
   7 -11  33  173.28   32.40
  -7  33 -11  110.59   33.50
 -33  -7 -11  260.67   66.59
 -11 -33   7  146.59   20.10
   7  11  33  186.08   29.90
 -33  11   7  158.08   59.89
  11  -7  33  164.98   30.70
   7 -33  11  113.29   19.10
   9 -11  33   59.29   21.60
 -33   9  11   32.50   45.80
  11   9  33   81.99   24.40
 -33 -11   9   26.10   30.50
  11 -33   9   80.09   14.00
  -9  11  33  125.29   26.40
 -11  33   9  108.49   25.30
 -33 -11  -9   21.10   38.10
 -11 -33   9   88.59   14.30
 -11   9  33  100.39   30.20
   9  11  33  110.19   25.70
 -33  11   9  137.19   57.29
   9 -33  11   62.09   13.40
 -11  33  -9  112.79   29.20
  -9  33  11   87.29   20.60
  11  -9  33   99.69   24.10
 -11  33 -11   30.50   21.80
 -33 -11  11   20.90   28.40
 -33  11  11   42.50   46.90
  11  11  33   14.40   15.10
  11 -33  11   31.10    9.70
 -11 -33  11   21.10    7.90
 -11  11  33    8.90   17.60
 -11  33  11   14.90   13.90
  -1  33 -13   89.19   27.50
 -33  -1 -13   49.00   49.20
  -1  13  33   92.29   23.10
   1  33  13   57.49   18.80
  13   1  33   95.49   26.10
 -13  33   1  125.99   28.10
 -13  33  -1   93.39   26.30
   1 -33  13   88.89   14.90
 -33   1 -13   14.70   48.00
   1  13  33  101.99   23.50
  -1  33  13  132.29   24.90
  13  -1  33   85.99   26.80
  33 -13   1  109.29   17.30
  13 -33   3   11.00    7.10
 -33 -13   3   13.40   28.10
  -3 -33  13   20.00    7.30
 -33   3  13    6.40   36.00
   3  33  13   44.60   16.20
  13   3  33   19.00   14.70
 -33  -3 -13   30.60   46.60
 -13  33   3    5.00   12.50
  -3  13  33   32.60   14.80
  -3  33 -13   28.50   22.30
 -13 -33   3   17.20    8.30
 -13  33  -3   19.20   16.50
  13  -3  33   27.10   16.20
   3 -33  13   35.40    9.20
 -33 -13  -3   29.30   30.10
  -3  33  13   21.00   14.80
   3  13  33   20.30   14.40
 -13  33   5   11.80   13.20
  13 -33   5   40.60   10.10
 -33   5  13   33.60   42.60
 -33 -13   5   25.30   27.40
  13   5  33   19.70   14.70
   5  33  13   11.90   14.10
  -5 -33  13   32.80    9.00
  -5  13  33   22.50   14.00
  -5  33 -13    5.30   20.00
 -33 -13  -5   13.00   29.90
 -13  33  -5   21.70   19.70
  13  -5  33   17.30   16.00
  33 -13   5    7.00    7.20
   5  13  33   29.00   14.50
 -33  -5  13   -4.80   28.70
 -33  13   5  -11.40   41.20
   5 -33  13   19.60    7.40
  -5  33  13   20.70   14.50
 -13 -33   5   20.90    8.40
  -7  13  33   80.19   19.70
  -7  33 -13   64.29   24.70
  -7 -33  13   56.29   11.60
 -13  33   7   51.99   16.90
 -33   7  13   72.09   48.20
  13   7  33   38.90   17.30
 -33 -13   7   14.80   26.30
   7  33  13   92.09   25.00
  13 -33   7   47.60   11.80
  -7  33  13   88.69   22.30
   7  13  33   32.20   15.80
  13  -7  33   63.49   21.00
 -33 -13  -7   44.50   35.30
 -33  -7  13   16.20   28.80
 -13  33  -7   35.10   21.90
  -9  13  33   24.80   17.90
  -9 -33  13   30.90    9.00
 -33   9  13   27.00   43.70
  13   9  33   40.10   17.50
  33  -9  13   13.70    8.00
   9  33  13   18.10   18.40
  -9  33 -13   25.70   24.80
 -13  33   9   29.40   16.10
  13  -9  33    7.10   16.10
  33 -13   9   18.90    8.90
 -33  -9  13   10.80   27.40
   9 -33  13   15.30    7.50
 -13  -9 -33   17.30   11.00
   9  13  33    9.90   14.20
 -13 -33   9   14.40    7.60
 -13  33  -9   37.70   22.90
  -9  33  13   32.50   14.80
 -13  33  11    0.20   12.70
 -11 -13 -33   -6.90   10.30
  33 -11  13    1.40    8.10
 -11  13  33    3.60   19.40
  13  11  33    6.40   19.50
 -33  11  13   77.39   51.89
 -11  33 -13   15.00   40.00
  11  13  33   11.70   14.80
 -11  33  13    3.50   13.30
  33 -13  11    1.20    7.90
  11 -33  13   -0.10    5.70
 -33  13  11   40.00   50.09
 -13 -33  11   -2.00    6.70
 -11  13 -33  -16.40   48.30
 -13 -11 -33  -14.80    9.70
 -13  33 -11   19.00   31.20
  15   1  33  302.57   44.60
  -1  15  33  295.17   43.00
  -1  33 -15  278.27   53.39
 -15  33  -1  275.37   44.10
  15 -33  -1  351.96   38.70
  -1  15 -33  304.67   82.09
   1  15  33  333.47   44.00
 -15  33   3   20.60   14.30
 -33 -15   3    1.90   26.20
  -3  33 -15   14.50   21.60
  15 -33   3   16.00    8.30
  15   3  33   10.10   14.20
 -33   3  15   14.30   36.80
   3  33  15   10.40   13.90
  -3  15  33    3.30   13.20
   3  15  33   16.90   14.40
  15  -3  33    4.20   15.30
  -3  15 -33   31.60   43.10
 -33   3 -15  -26.90   44.80
  -3  33  15   19.00   14.60
   3 -33  15   25.10    8.50
  33 -15   3   15.50    8.50
 -15 -33   3   16.20    9.20
 -15  33  -3    8.80   17.30
 -33 -15  -3   18.30   27.60
 -33 -15   5   33.80   28.40
  -5  33 -15   -3.20   22.20
  -5 -33  15    9.20    7.30
  15   5  33   20.60   15.50
 -33   5  15   13.90   41.00
   5  33  15   32.40   16.40
  -5  15  33   35.10   15.20
 -15  33   5   31.40   16.00
  15 -33   5   44.40   11.20
  33 -15   5   22.40   10.10
 -15 -33   5   24.60    9.40
   5 -33  15   18.10    7.70
 -15  33  -5   22.20   20.00
  -5  33  15   23.20   15.90
   5  15  33   30.90   15.40
  15  -5  33   17.20   15.80
 -33  -5  15   11.50   29.90
 -33   5 -15  -17.40   50.39
  -5  15 -33   16.80   42.90
 -33 -15  -5   18.00   29.60
 -15  33   7  151.78   28.70
 -33   7  15  167.88   58.49
  -7 -33  15  151.18   21.10
  -7  33 -15  234.68   41.30
 -33  15   7  188.08   64.69
 -15 -33   7  168.98   22.60
   7 -33  15  132.09   20.40
  -7  15 -33  201.48   58.19
   1  33  17  480.65   63.39
  -1  17  33  502.35   62.89
 -17  33   1  583.34   72.79
  17   1  33  540.35   70.69
  -1  33 -17  539.55   73.09
   1  17  33  515.55   63.59
  17 -33  -1  518.25   59.99
  17  -1  33  652.93   77.59
  17 -33   3   88.19   16.10
 -33 -17   3   58.19   31.80
  -3  17 -33   19.60   69.99
 -33  -3  17  107.59   43.10
 -34   0   0 1365.96  176.08
   0 -34   0 1269.07  145.99
   0   0  34 1605.14  150.98
  -2 -34   0  568.44   58.69
  -2  34   0  536.25   61.09
   0  -2  34  411.86   62.49
   0   2  34  532.65   62.99
   2   0  34  516.55   62.29
   0  34   2  615.24   62.79
   0  34  -2  588.84   63.39
 -34   2   0  426.16   89.09
  -2   0  34  462.25   62.89
  -2  -2  34  105.29   26.60
 -34   2  -2   32.00   40.90
   2  34  -2   82.69   21.20
   2  34   2   65.79   18.80
  -2   2  34   76.19   23.20
  -2  34  -2  133.49   24.70
  -2  34   2  102.99   22.00
   2 -34   2   84.39   14.30
   2  -2  34   47.50   17.80
   2   2  34   73.49   22.20
 -34  -2  -2   92.19   46.00
  -4   0  34  156.68   30.00
   0 -34   4  107.49   18.20
   0  34  -4  140.99   27.80
   4   0  34  157.38   26.80
  -4  34   0   88.19   25.90
 -34   0  -4  159.48   55.49
   0   4  34  138.49   26.90
   4  34   0  123.89   27.80
   0  -4  34  174.88   31.70
 -34  -2  -4   15.40   39.00
  -2 -34   4    1.30    5.90
   4   2  34   -9.30   11.50
   2  34   4   -8.90   12.50
  -4  34   2   -1.20   11.10
 -34   4  -2    7.20   42.50
 -34  -4   2  -17.80   32.90
  -2  34  -4   -3.80   13.00
   4 -34   2   -2.90    5.50
  -4  -2  34  -12.70   14.00
   2  -4  34   -8.70   13.70
  -2   4  34    0.10   12.50
   4  34  -2   -6.00   13.40
  -4   2  34   14.80   14.70
 -34   2  -4    6.80   37.10
  -4 -34   2    0.30    6.00
  -4  34  -2    5.20   14.40
  -2  34   4    0.00   12.00
  -2  -4  34   -5.50   15.50
 -34   4   2   13.20   39.90
   2 -34   4   -2.20    4.90
   4  34   2   -2.60   13.30
   4  -2  34   -4.80   12.00
   2   4  34   -5.00   12.10
   2  34  -4  -20.30   12.80
   4   4  34   77.09   24.10
   4  34  -4   97.49   23.90
  -4  -4  34  117.59   29.90
  -4   4  34   99.19   24.70
 -34  -4  -4  195.08   59.59
 -34   4  -4   57.09   49.90
 -34   4   4  170.78   59.69
   4  -4  34   81.59   24.40
   0   6  34  551.34   54.99
   6 -34   0  401.56   47.60
 -34   6   0  315.77   82.49
 -34   0  -6  316.17   79.49
  -2 -34   6   87.99   16.80
  -2   6  34  115.39   25.30
   2  -6  34  149.79   30.30
   6   2  34  111.49   24.90
  -6  34   2  154.88   24.80
 -34   2   6   46.60   43.70
  -6  -2  34  132.79   33.40
  -2  34   6  120.19   25.30
  -2  -6  34  142.59   32.00
  -6   2  34  126.79   30.40
   6  -2  34  109.49   26.50
 -34  -6  -2   44.10   40.40
   2   6  34  155.08   27.30
 -34   2  -6  169.88   59.89
 -34  -6   4  -15.50   30.50
 -34   6  -4  -19.40   37.10
   6   4  34   -3.50   11.80
   4  -6  34    1.60   13.90
  -4 -34   6   -3.20    5.60
   6 -34   4    1.60    5.90
   4  34   6   16.40   14.60
  -4   6  34   -4.10   12.70
  -6  -4  34    5.50   19.50
 -34   4   6    0.80   35.90
  -6  34   4   -2.20   11.60
  -4  34  -6    1.10   14.20
 -34  -4  -6   21.30   38.70
  -4  34   6   -5.50   12.30
   6  34   4   -7.80   14.30
 -34   4  -6  -14.50   40.40
   4 -34   6   -2.00    5.30
  -6  34  -4    1.00   15.30
   4   6  34    7.80   13.30
  -4  -6  34    2.00   18.10
   6  -4  34   -7.90   12.00
  -6   4  34    8.60   15.80
  -6   6  34   90.69   24.50
 -34   6   6   38.60   45.30
  -6 -34   6   55.59   13.10
   6 -34   6   83.29   13.70
   6  -6  34   87.29   24.90
 -34  -6  -6    4.30   37.00
  -6  34  -6   96.99   26.30
  -6  34   6   83.19   21.40
   6  34   6   93.99   26.20
   6   6  34   80.89   22.40
 -34   0   8  688.33  109.49
 -34   0  -8  774.12  117.59
 -34  -8   0  705.63  106.49
   0   8  34  871.01   86.99
  -8  34   0  695.63   85.39
   0  -8  34  823.42   90.19
   8   2  34  261.77   43.00
  -2   8  34  326.97   44.20
 -34   2   8  289.77   70.49
   2  -8  34  325.27   47.00
 -34  -8   2  457.65   71.29
  -2  34  -8  348.77   47.50
  -8  34   2  376.16   42.80
  -2  -8  34  323.07   47.90
  -8   2  34  245.28   48.50
  -8  34  -2  344.27   45.20
   8  -2  34  272.17   43.70
   2   8  34  316.97   43.30
 -34  -8  -2  377.86   69.49
   2  34  -8  369.66   47.90
  -4  34  -8   60.49   20.70
 -34  -4  -8   32.70   41.10
  -4   8  34   62.89   18.30
 -34   4   8   27.30   38.90
   8 -34   4   45.10   10.90
 -34   8  -4   69.39   48.40
 -34  -8   4   14.30   33.80
  -8  34   4   59.79   16.40
   8   4  34   46.50   16.60
   4  -8  34   45.80   18.00
   4  34   8   26.40   15.60
   4   8  34   55.29   17.60
  -4  -8  34   37.30   20.90
   8  -4  34   43.70   17.70
  -8  34  -4   27.60   17.60
  -8 -34   4   34.10   10.70
  -4  34   8   23.70   14.20
  -8   4  34   65.89   22.50
  -8  34   6  306.27   39.90
   6  -8  34  231.38   40.70
  -6   8  34  333.87   42.90
  -6  34  -8  274.67   44.20
   8   6  34  279.27   40.30
  -6  34   8  261.37   39.10
   6   8  34  354.46   41.90
 -34   8   6  343.27   77.19
 -34   6  -8  158.28   67.19
  -8  34   8  660.63   70.99
   8  -8  34  538.15   72.19
   8 -34   8  674.63   65.69
   8   8  34  535.45   69.99
 -34   0 -10  682.93  111.19
   0  10  34  624.04   77.19
   0 -10  34  736.73   82.99
 -10  34   0  604.54   77.89
  10   0  34  816.72   80.39
  -2  10  34  206.88   31.10
 -34   2  10  199.58   61.29
  10   2  34  254.47   33.70
  -2  34 -10  141.49   45.50
 -34  -2  10   96.09   53.29
  -2 -10  34  278.27   43.40
  10  -2  34  230.78   35.60
   2  10  34  205.48   32.50
 -10 -34   2  152.28   24.60
  -4  10  34   29.60   14.80
 -34  -4 -10    1.00   39.40
  -4  34 -10   29.00   20.20
 -10  34   4   47.00   18.60
  10   4  34   33.20   16.20
   4 -10  34   19.20   16.80
   4  34  10   52.29   16.90
  -4  34  10   63.39   19.00
   4  10  34   32.70   15.30
 -34 -10  -4   22.70   34.10
  10  -4  34   32.30   16.90
   4 -34  10   27.70    8.80
 -10  34  -4    9.80   16.80
  -4 -10  34   -3.10   23.40
 -10 -34   4   37.30   10.60
   6  34  10  229.18   35.60
 -10  34   6  225.98   33.50
  10   6  34  190.68   34.20
   6 -10  34  223.28   38.90
  -6  10  34  191.48   34.40
  -6  34  10  282.37   35.40
 -10  34  -6  236.98   39.20
  10  -6  34  194.58   35.70
   6  10  34  226.68   35.70
 -34  10   6  188.68   66.39
  -8  10  34  320.37   49.30
  10   8  34  433.86   51.09
 -10  34   8  453.95   50.89
   8 -10  34  368.16   53.29
  -8  34 -10  483.05   57.99
 -34  -8 -10  533.85   85.19
   8  10  34  434.26   51.29
   8 -34  10  369.66   43.60
  10  -8  34  398.46   52.39
 -10   8  34  307.87   53.89
 -10  34  -8  338.07   54.89
 -34  10   8  302.47   81.79
  10 -10  34  314.87   48.60
  10 -34  10  290.47   37.40
 -10  34  10  407.86   45.70
 -10  34 -10  391.26   51.59
  10  10  34  301.37   44.50
 -34   0  12   95.09   45.40
 -12  34   0  124.39   28.90
   0  12  34  178.88   29.90
  12   0  34  196.08   32.10
   0  34 -12  157.38   38.40
 -12  34   2    7.90   13.50
 -34   2  12  -11.00   36.30
  -2  12  34   -8.30   11.60
  -2  34 -12   -7.20   20.40
 -34  -2 -12   26.40   50.79
 -34 -12   2   -0.30   28.80
  12 -34   2   -6.20    5.50
   2  34  12    2.20   12.70
  12   2  34   -0.90   12.80
 -12  34  -2   -7.70   14.70
  12  -2  34    1.70   13.70
 -12 -34   2   -2.40    6.20
   2 -34  12    6.70    6.50
 -34 -12  -2   21.50   29.30
  -2  34  12    6.90   14.40
 -34   2 -12  -29.50   43.00
   2  12  34    7.70   12.90
 -34  12   2   -2.20   40.80
 -34  -4 -12  -15.90   45.20
  12   4  34   69.99   20.00
   4  34  12   85.39   23.40
  -4  12  34   78.39   19.60
  -4  34 -12   44.00   22.50
 -12  34   4   51.89   17.00
 -12  34  -4   31.10   19.20
   4 -34  12   48.30   11.30
 -34  12   4   28.00   48.80
  -4  34  12   61.49   17.70
 -34  -4  12   20.80   34.60
   4  12  34   53.19   17.30
  12  -4  34   74.49   21.60
 -12  34   6   -0.90   12.40
  -6  34 -12   -1.50   19.30
  12 -34   6    1.00    5.90
   6  34  12   -2.30   14.70
 -34 -12   6   -2.30   28.50
  -6 -34  12    1.30    6.70
  12   6  34   -5.80   13.10
  -6  12  34   10.60   14.50
 -12 -34   6   -2.80    6.10
  -6  34  12   -7.80   12.10
   6  12  34   -2.70   13.10
 -34   6 -12  -27.70   44.50
 -34  -6  12    7.70   31.00
  12  -6  34    1.30   13.90
 -12  34  -6   -2.00   17.70
  12   8  34   48.40   17.70
  -8  34 -12   80.49   26.20
   8  34  12   22.10   21.90
 -12  34   8   68.69   19.20
  -8  12  34   49.80   19.10
 -34   8  12  127.49   53.39
 -12  34  -8   46.20   23.10
  -8  34  12   49.30   17.90
 -34 -12  -8   82.09   42.00
 -34  12   8   38.00   48.30
  12  -8  34   44.00   18.90
   8  12  34   67.79   19.30
 -12 -34   8   35.10   10.90
 -34  -8  12   39.60   31.10
   8 -34  12   33.20    9.90
  34 -12   8   61.59   13.60
 -14  34   0  286.27   40.20
  14   0  34  231.58   38.10
 -34   0 -14  282.87   83.79
   0  34 -14  189.88   49.10
  -2 -34  14   17.20    8.00
   2  34  14   -6.70   13.00
 -34 -14   2   -9.00   26.50
  14   2  34   13.80   16.10
 -14  34   2   25.00   15.50
  14 -34   2   23.90    9.50
  -2  34 -14   10.50   22.70
 -34   2  14   21.70   40.70
  -2  14  34    6.30   13.90
   2  14  34   -6.90   12.50
 -34   2 -14   13.90   51.89
  14  -2  34    1.50   15.00
 -14  34  -2   28.90   18.00
  -2  14 -34   30.70   48.00
 -34 -14  -2    4.70   29.70
   2 -34  14   25.70    8.50
  -2  34  14   27.10   14.50
   4  34  14   13.80   15.10
  -4  14  34   16.20   15.10
  -4  34 -14    9.80   21.40
  -4 -34  14   16.90    7.80
 -34 -14   4   38.40   28.90
 -34   4  14   27.50   42.70
 -14  34   4   -3.60   12.60
  14   4  34    8.70   14.80
 -14 -34   4   10.20    7.00
  -4  14 -34    3.00   46.40
  -4  34  14   -3.00   13.00
   4  14  34   28.00   14.50
  14  -4  34   -4.00   15.10
 -14  34  -4   14.90   18.30
 -34 -14  -4    2.40   30.70
 -34   4 -14   13.80   50.59
 -34  -4  14   14.90   32.50
  34 -14   4   17.60    8.00
  14 -34   6   21.30    8.80
 -34   6  14    5.10   46.40
 -14 -34   6    3.70    7.40
 -34  -6  14   22.10   40.70
 -34   6 -14    2.10   52.29
 -34 -14  -6   32.90   35.40
 -34  14   6   17.50   58.79
   6 -34  14   47.10   14.20
  34 -14   6   15.50    8.60
  -1 -35   1  291.47   33.90
  -1   1  35  342.27   41.90
  -1  35  -1  266.17   37.10
  -1  35   1  227.18   37.00
   1  35   1  270.07   38.30
 -35  -1  -3    5.30   37.40
  -1 -35   3   37.40   11.30
  -1  35  -3   56.29   17.00
   3   1  35   45.00   16.80
  -3  -1  35   45.00   18.30
  -3  35   1   48.90   14.80
   1  35   3   33.30   15.10
  -1   3  35   27.20   15.50
   1  -3  35   40.40   16.80
 -35  -3   1   42.80   41.40
   3  35  -1   25.70   17.10
  -3  35  -1   33.60   14.70
  -3   1  35   49.90   18.90
 -35  -1   3   -5.40   34.50
 -35   1  -3   39.90   41.80
  -1  35   3   27.40   14.10
   1 -35   3   51.89   11.40
   1  35  -3   12.00   13.30
  -1  -3  35   33.80   18.10
   1   3  35   26.40   16.10
  -3 -35   1   47.70   12.20
   3  35   1   35.30   18.00
 -35   3   1   28.80   45.90
   3  -1  35   27.50   15.50
  -3  35  -3   20.50   14.80
   3   3  35   30.30   14.60
   3  35  -3   27.60   16.80
  -3   3  35   16.00   14.70
  -3  -3  35    9.80   16.40
 -35  -3   3    7.80   35.20
  -3  35   3   14.50   13.60
   3 -35   3   18.20    7.60
   3  -3  35   19.80   15.10
   3  35   3   23.40   15.80
  -1  35  -5   14.30   15.50
  -5  35   1    9.30   11.60
  -1   5  35   16.40   14.30
   1  -5  35   33.20   18.10
 -35  -5   1   72.29   42.10
   1  35   5   23.20   14.80
 -35   1   5    2.00   36.50
   5   1  35   24.60   15.10
   5 -35   1   21.70    9.00
 -35   5  -1   23.40   44.60
  -5  -1  35   25.50   19.20
   5  35   1   58.09   20.60
   1  35  -5   23.30   16.90
   1 -35   5   14.50    7.80
  -5  35  -1   20.10   14.00
  -1  -5  35   21.30   17.70
  -5   1  35   13.00   16.60
   5  -1  35   41.70   16.10
 -35  -1   5    8.80   37.20
 -35  -5  -1   28.30   38.80
   1   5  35   35.40   15.50
  -1  35   5   18.20   14.20
  -3  35  -5   47.80   19.00
   3  -5  35   40.50   17.70
  -3   5  35   61.19   19.90
   3  35   5   59.39   17.70
  -5  35   3   34.90   15.00
 -35  -3  -5   10.50   38.90
 -35   5  -3   21.20   42.80
   5   3  35   48.60   17.30
  -5  -3  35   46.00   22.80
   3   5  35   55.49   18.00
 -35   5   3    5.40   38.50
  -3  -5  35   39.20   20.10
   3 -35   5   58.69   11.50
  -3  35   5   79.79   19.30
 -35  -5  -3   36.50   39.30
 -35  -3   5    9.10   38.40
  -5 -35   3   41.70   11.60
  -5  35  -3   27.50   15.80
   5  -3  35   49.20   18.00
  -5   3  35   44.80   18.40
  -5  35  -5  125.09   29.00
 -35   5   5   56.89   44.10
  -5   5  35  124.59   29.80
 -35  -5   5  112.09   44.40
 -35   5  -5   68.69   52.39
   5  35   5  144.39   28.70
   5   5  35  120.09   27.00
   5 -35   5  107.19   17.00
   5  -5  35  112.39   28.40
  -7  35   1  263.77   33.60
   1  35   7  169.68   33.80
 -35  -1  -7  301.37   71.59
  -1   7  35  206.98   35.00
   7   1  35  252.17   36.00
   1  -7  35  253.57   39.60
   1   7  35  249.78   36.70
  -1  -7  35  266.37   40.50
 -35  -1   7  264.67   65.29
 -35   1  -7  225.48   70.79
  -7   1  35  265.67   43.10
   1  35  -7  159.28   36.70
   7  -1  35  247.28   36.10
  -1  35   7  243.58   34.90
  -7  35  -1  266.87   35.70
  -7 -35   1  179.18   28.70
   7   3  35    1.10   12.30
 -35   7  -3   -6.30   38.80
  -7  35   3    2.20   11.50
  -3  35  -7   -5.80   15.00
 -35   3   7   19.20   40.60
   3  -7  35    8.70   15.10
 -35  -3  -7  -33.50   34.70
  -3 -35   7    4.20    6.30
   7 -35   3    5.90    7.00
 -35  -7   3  -20.00   32.10
  -3   7  35    2.20   13.90
   3  35   7   -0.10   13.30
 -35  -7  -3   14.70   35.90
  -7  35  -3   -0.50   13.90
  -7   3  35   15.20   16.90
   3   7  35   -4.50   12.70
 -35   3  -7   -1.60   43.80
 -35  -3   7    8.40   35.90
  -3  35   7    0.20   12.40
  -3  -7  35    6.20   19.40
   7  -3  35   -2.80   13.40
 -35   7   3   24.40   44.00
  -7 -35   3    2.00    5.70
   5  -7  35    2.00   14.50
   5  35   7    5.20   15.20
  -5   7  35   -2.80   14.60
   7   5  35   10.80   13.80
 -35  -7   5   14.70   33.90
  -7  35   5   -4.90   11.60
  -5 -35   7    3.50    6.80
  -5  35  -7   14.00   16.20
  -7   5  35    0.70   16.00
  -7  35  -5    0.40   15.80
 -35   7   5  -11.80   39.70
   5 -35   7   -0.20    5.80
  -5  35   7   -0.90   12.20
   7  -5  35   -1.80   14.90
 -35  -5   7   10.20   34.60
 -35   5  -7   -2.40   43.30
  -7 -35   5    1.80    6.10
   5   7  35    3.00   13.30
   7  -7  35   77.29   22.00
 -35   7  -7   60.79   49.40
  -7 -35   7   75.29   13.70
  -7   7  35   57.29   20.40
 -35  -7  -7    7.20   37.40
   7   7  35   82.19   20.70
  -9  35   1  617.64   63.39
  -1   9  35  501.45   63.39
 -35  -1  -9  535.95   96.39
   9   1  35  520.45   63.49
  -1  35   9  456.85   61.69
   9  -1  35  506.05   64.19
  -1  -9  35  488.85   68.29
 -35   1  -9  668.53  103.59
   1  35  -9  587.84   68.39
   9 -35   3  151.58   18.90
   9   3  35  106.69   25.80
 -35   9  -3   72.29   51.09
 -35  -9   3   69.89   39.70
 -35  -3  -9  115.79   52.79
   3  35   9  143.69   29.20
  -3   9  35  114.79   26.50
  -9  35   3  108.69   25.10
  -3  35  -9  117.19   29.60
   3   9  35  151.78   27.30
   9  -3  35  111.09   29.10
  -3  -9  35   86.29   28.60
 -35  -3   9   75.09   41.50
  -3  35   9  150.68   27.00
  -9  35  -3  106.09   28.20
   5  -9  35   56.49   20.70
   5  35   9   84.79   22.50
   9 -35   5   37.70   10.90
  -5   9  35   45.20   21.40
   9   5  35   78.69   22.90
 -35   9  -5   43.50   49.80
 -35   5   9   21.20   42.20
  -5  35  -9   61.69   22.00
   9  -5  35   48.70   19.40
 -35  -9  -5   25.50   39.10
 -35   5  -9   69.49   53.49
 -35   9   5   53.99   47.80
  -9 -35   5   48.90   12.20
  -5  35   9   60.99   17.20
   5   9  35   58.69   19.00
 -35  -5   9   18.30   35.50
   9   7  35  255.67   38.60
   7  -9  35  229.38   40.30
  -9  35   7  291.37   38.40
  -7   9  35  250.07   40.00
   9 -35   7  319.97   32.10
  -9  35  -7  238.58   42.50
   9  -7  35  212.58   40.20
 -35   7  -9  168.88   64.69
   7   9  35  249.28   38.70
  -7  35   9  307.27   39.10
  -9 -35   7  256.17   31.60
  -1  35 -11  112.79   27.10
 -35   1  11   35.90   38.50
   1  35  11   98.59   25.90
 -11  35   1   94.39   22.40
 -35  -1 -11   52.29   47.90
  -1  11  35   71.59   19.40
  11   1  35   43.40   17.60
 -35  11  -1   18.60   44.70
 -35 -11   1   24.10   30.50
   1  11  35   52.39   17.80
 -35  -1  11   79.69   43.90
 -35 -11  -1    3.30   33.50
  -1  35  11  109.19   26.00
 -11  35  -1   63.39   19.90
 -35   1 -11   31.90   53.29
  11  -1  35   88.59   25.60
   3  35  11    0.00   12.80
   3 -11  35    9.00   18.00
 -11  35   3   -2.70   12.00
 -35 -11   3    9.10   29.90
 -35   3  11   21.40   38.70
  -3  35 -11  -12.70   17.50
 -35  -3 -11   42.90   51.19
  11   3  35    3.50   13.90
  -3  11  35   12.40   13.90
 -11  35  -3    2.60   15.50
   3  11  35    4.50   13.70
 -35  11   3  -12.20   40.50
  11  -3  35   -0.20   14.40
 -35   3 -11    9.60   46.80
  -3  35  11    0.10   12.70
  -5 -35  11   39.20   10.70
 -11  35   5   21.50   14.50
  -5  11  35   32.30   16.40
 -35  -5 -11    8.80   46.50
  11 -35   5   41.80   10.60
  11   5  35   26.00   15.80
 -35   5  11   19.90   40.90
 -35 -11   5  -11.90   29.10
   5  35  11   13.30   16.30
  -5  35 -11    9.20   20.30
   5  11  35   30.40   16.50
 -11  35  -5   10.30   17.40
 -35 -11  -5   22.50   35.00
  -5  35  11    4.60   13.20
   5 -35  11   21.50    8.00
 -35   5 -11   45.80   51.59
  11  -5  35   15.30   15.80
 -11 -35   5    8.90    7.40
 -36   0   0  112.29   54.79
   0   0  36  156.08   30.80
   0  36   0  184.78   29.60
 -36   0  -2   49.30   44.50
 -36   0   2   13.90   37.80
  -2  36   0   19.10   13.40
   0  -2  36   53.19   19.40
   0   2  36   33.90   17.00
   2  36   0   10.50   14.30
   0  36  -2   11.30   13.10
   0  36   2   14.50   14.20
   2   0  36   39.70   16.70
  -2   0  36   36.90   18.00
   0 -36   2   37.90   10.80
 -36   2   0   43.80   44.00
 -36  -2   0   32.50   42.70
   2 -36   2    9.80    7.20
 -36  -2  -2   35.10   43.00
 -36  -2   2   17.40   39.40
 -36   2  -2    2.50   42.30
  -2 -36   2    7.30    7.90
  -2  -2  36   10.60   16.80
   2  36   2    5.30   14.20
   2  -2  36   18.50   15.80
   2   2  36    5.00   13.10
  -2  36  -2   15.20   12.60
  -2  36   2   -3.70   11.80
   2  36  -2    4.90   14.70
  -2   2  36   17.50   15.40
   4   0  36   -2.40   13.00
 -36   0  -4   -1.40   41.40
 -36  -4   0   41.20   41.30
  -4   0  36   -1.20   15.90
   0  36  -4   26.40   15.70
   0  36   4   -4.10   12.70
  -4  36   0   13.30   13.20
   0  -4  36   11.50   16.30
   0   4  36   25.80   16.50
 -36   0   4   18.70   42.00
  -2 -36   4   56.59   12.40
  -4  36   2   70.79   18.40
   2  36   4   26.30   16.10
   2  -4  36   37.60   17.80
 -36  -2  -4   -0.40   40.70
  -2   4  36   59.19   18.40
  -4  -2  36   32.70   20.60
   4   2  36   37.70   16.50
 -36  -4   2   31.30   38.10
 -36   4  -2   36.70   44.80
  -2  36  -4   69.49   19.70
   2 -36   4   33.20   10.30
  -2  -4  36   44.90   21.20
   4  36   2   49.60   18.40
  -2  36   4   21.60   15.30
 -36  -2   4   57.19   42.70
 -36   4   2   -3.40   41.60
 -36   2  -4   -6.00   44.10
  -4   2  36   63.39   20.80
   2   4  36   32.60   15.80
  -4  36  -2   64.79   18.20
   4  -2  36   44.70   18.30
   2  36  -4    4.90   15.10
 -36  -4  -2   24.90   39.60
  -4  -4  36  330.57   50.89
  -4   4  36  262.67   43.80
   4   4  36  311.77   43.40
   4 -36   4  350.06   37.70
   4  -4  36  319.57   45.50
 -36   4   4  325.47   79.79
 -36  -4   4  331.87   71.89
   0  36  -6    6.40   15.90
  -6  36   0   -5.60   11.60
  -6   0  36    4.10   19.10
 -36   6   0   -1.00   41.30
   6   0  36   -4.30   13.30
   0   6  36   -1.00   13.50
 -36   0  -6   24.20   45.20
 -36   0   6   35.40   43.70
   0  36   6    4.30   12.50
   0  -6  36    5.20   16.80
 -36   6  -2  -12.40   43.80
   2  36   6   23.40   15.50
  -6  36   2   29.80   15.00
  -2 -36   6    7.50    7.10
  -2   6  36   20.30   15.40
   6   2  36   10.20   14.10
  -2  36  -6    1.80   15.10
   2  -6  36   18.40   16.90
   2  36  -6  -11.20   19.90
   2   6  36   17.90   15.20
   2 -36   6   21.00    7.80
  -2  36   6   18.30   14.30
 -36  -2   6    3.20   38.60
 -36   2  -6  -14.60   39.30
  -6 -36   2    4.50    7.50
 -36   6   2   -7.20   39.10
  -6   2  36   14.30   17.70
  -2  -6  36   18.00   19.70
   6  -2  36   14.60   15.60
  -6  36  -2   14.80   15.00
 -36   6  -4  242.08   76.89
 -36   4   6  237.68   70.39
  -4  36  -6  296.27   40.60
  -6  36   4  275.87   36.60
   4  -6  36  283.87   41.60
   6   4  36  197.48   35.80
   6  -4  36  241.68   40.20
   4   6  36  260.17   37.50
 -36  -6  -4  325.27   69.49
  -6 -36   4  228.18   30.80
  -6   4  36  207.08   41.60
  -6 -36   6  106.59   19.00
 -36  -6  -6  213.68   62.79
  -6  36  -6  124.59   31.70
   6  -6  36  152.88   30.70
   6   6  36  171.68   30.10
 -36   6   6   68.49   50.79
 -36   6  -6  167.88   63.69
  -6   6  36  151.88   31.60
  -8  36   0  139.19   26.30
   8   0  36  181.98   30.50
   0  36   8  123.09   28.40
 -36   8   0   62.79   53.99
   0  36  -8  175.08   35.10
 -36   0  -8   61.09   50.79
 -36   0   8  219.68   60.99
   0  -8  36  163.48   34.40
  -2  36  -8   57.69   22.10
  -8  36   2   71.49   21.20
   2  36   8   89.09   25.30
  -2   8  36   92.69   23.90
   8   2  36   90.09   23.90
 -36   2   8   60.79   43.70
  -2 -36   8   73.89   14.30
 -36  -2  -8   27.70   44.00
 -36   8   2   31.50   46.90
   8  -2  36  104.59   27.50
   2   8  36   58.89   20.80
  -2  36   8   86.79   20.50
   2 -36   8   59.09   13.10
  -2  -8  36  116.19   30.20
 -36   2  -8   98.49   52.99
 -36  -2   8  128.39   50.39
  -4  36  -8   -6.30   16.20
   4  -8  36    5.90   16.60
  -4   8  36    1.60   15.10
 -36  -4  -8  -24.30   41.20
 -36  -8   4   10.70   36.00
  -8  36   4   -6.30   12.20
   4  36   8    0.00   15.10
  -4 -36   8    7.00    7.40
   8   4  36    4.70   15.40
  -8  36  -4   -7.00   14.20
 -36   4  -8   25.60   49.99
   4   8  36   -4.40   14.20
  -4  36   8    7.10   17.10
   4 -36   8    1.80    5.80
  -8 -36   4    1.70    7.30
   8  -4  36    5.30   16.40
 -36  -8  -4  -29.00   34.80
 -37  -1  -1   18.30   41.50
 -37   1  -1    4.70   41.50
  -1  -1  37    5.30   15.30
  -1   1  37    9.10   15.50
  -1  37  -1   -1.90   13.10
  -1  37   1    3.10   13.00
   1  -1  37    1.70   14.70
   1   1  37   15.80   15.20
   1  37  -1    2.80   14.10
   1  37   1   -4.60   14.00
 -37  -1  -3   16.10   42.30
   1  37   3   38.40   16.10
  -1 -37   3   28.80    9.70
 -37   1   3   33.60   44.90
   3   1  37   57.89   30.50
  -3  37   1   34.80   19.60
  -1  37  -3   73.29   22.80
  -1   3  37   64.79   23.70
   1  -3  37   33.20   19.70
  -3  -1  37   68.59   26.70
  -1  -3  37   50.29   21.00
 -37  -3  -1   -0.30   41.00
 -37   3   1    9.20   47.40
   1   3  37   27.80   16.20
  -3   1  37   54.69   21.20
 -37   1  -3   26.80   45.80
  -3  37  -1   40.20   24.70
  -1  37   3    7.80   14.40
   1  37  -3   46.30   18.70
 -37  -1   3   15.10   45.00
   3  -1  37   33.70   20.80
 -37  -3   3  141.59   72.19

_computing_structure_solution     'SHELXT 2014/4 (Sheldrick, 2014)'
;
_shelx_hkl_checksum              94734

