####################################################################### 
# 
# This file contains crystal structure data downloaded from the 
# Cambridge Structural Database (CSD) hosted by the Cambridge 
# Crystallographic Data Centre (CCDC).
# 
# Full information about CCDC data access policies and citation 
# guidelines are available at http://www.ccdc.cam.ac.uk/access/V1 
# 
# Audit and citation data items may have been added by the CCDC. 
# Please retain this information to preserve the provenance of 
# this file and to allow appropriate attribution of the data. 
# 
#######################################################################

data_HN_B_0m
_audit_block_doi                 10.5517/ccdc.csd.cc28ggnw
_database_code_depnum_ccdc_archive 'CCDC 2099278'
loop_
_citation_id
_citation_doi
_citation_year
1 10.1016/j.seppur.2022.120646 2022
loop_
_audit_author_name
_audit_author_address
'Weifeng Xu'
;Hunan institute of science and technology
China
;
_audit_update_record             
;
2021-07-25 deposited with the CCDC.	2023-06-30 downloaded from the CCDC.
;

_audit_creation_method           SHELXL-2018/3
_shelx_SHELXL_version_number     2018/3
_chemical_name_systematic        ?
_chemical_name_common            ?
_chemical_melting_point          ?
_chemical_formula_moiety         ?
_chemical_formula_sum            'C2 H5 N5 S Zn'
_chemical_formula_weight         196.54

loop_
_atom_type_symbol
_atom_type_description
_atom_type_scat_dispersion_real
_atom_type_scat_dispersion_imag
_atom_type_scat_source
C C 0.0181 0.0091 'International Tables Vol C Tables 4.2.6.8 and 6.1.1.4'
H H 0.0000 0.0000 'International Tables Vol C Tables 4.2.6.8 and 6.1.1.4'
N N 0.0311 0.0180 'International Tables Vol C Tables 4.2.6.8 and 6.1.1.4'
S S 0.3331 0.5567 'International Tables Vol C Tables 4.2.6.8 and 6.1.1.4'
Zn Zn -1.5491 0.6778 'International Tables Vol C Tables 4.2.6.8 and 6.1.1.4'

_space_group_crystal_system      monoclinic
_space_group_IT_number           14
_space_group_name_H-M_alt        'P 21/c'
_space_group_name_Hall           '-P 2ybc'

_shelx_space_group_comment       
;
The symmetry employed for this shelxl refinement is uniquely defined
by the following loop, which should always be used as a source of
symmetry information in preference to the above space-group names.
They are only intended as comments.
;

loop_
_space_group_symop_operation_xyz
'x, y, z'
'-x, y+1/2, -z+1/2'
'-x, -y, -z'
'x, -y-1/2, z-1/2'

_cell_length_a                   7.3863(6)
_cell_length_b                   8.9838(6)
_cell_length_c                   10.0956(9)
_cell_angle_alpha                90
_cell_angle_beta                 100.464(6)
_cell_angle_gamma                90
_cell_volume                     658.77(9)
_cell_formula_units_Z            4
_cell_measurement_temperature    150(2)
_cell_measurement_reflns_used    ?
_cell_measurement_theta_min      ?
_cell_measurement_theta_max      ?

_exptl_crystal_description       ?
_exptl_crystal_colour            ?
_exptl_crystal_density_meas      ?
_exptl_crystal_density_method    ?
_exptl_crystal_density_diffrn    1.982
_exptl_crystal_F_000             392
_exptl_transmission_factor_min   ?
_exptl_transmission_factor_max   ?
_exptl_crystal_size_max          0.100
_exptl_crystal_size_mid          0.040
_exptl_crystal_size_min          0.005
_exptl_absorpt_coefficient_mu    7.473
_shelx_estimated_absorpt_T_min   0.522
_shelx_estimated_absorpt_T_max   0.964
_exptl_absorpt_correction_type   multi-scan
_exptl_absorpt_correction_T_min  0.5379
_exptl_absorpt_correction_T_max  0.7528
_exptl_absorpt_process_details   
;
 SADABS 2016/2: Krause, L., Herbst-Irmer, R., Sheldrick G.M. & Stalke D.,
 J. Appl. Cryst. 48 (2015) 3-10
;
_exptl_absorpt_special_details   ?
_diffrn_ambient_temperature      150(2)
_diffrn_radiation_wavelength     1.54178
_diffrn_radiation_type           CuK\a
_diffrn_source                   ?
_diffrn_measurement_device_type  ?
_diffrn_measurement_method       ?
_diffrn_detector_area_resol_mean ?
_diffrn_reflns_number            3348
_diffrn_reflns_av_unetI/netI     0.0502
_diffrn_reflns_av_R_equivalents  0.0531
_diffrn_reflns_limit_h_min       -8
_diffrn_reflns_limit_h_max       8
_diffrn_reflns_limit_k_min       -10
_diffrn_reflns_limit_k_max       10
_diffrn_reflns_limit_l_min       -10
_diffrn_reflns_limit_l_max       11
_diffrn_reflns_theta_min         6.092
_diffrn_reflns_theta_max         66.450
_diffrn_reflns_theta_full        66.450
_diffrn_measured_fraction_theta_max 0.984
_diffrn_measured_fraction_theta_full 0.984
_diffrn_reflns_Laue_measured_fraction_max 0.984
_diffrn_reflns_Laue_measured_fraction_full 0.984
_diffrn_reflns_point_group_measured_fraction_max 0.984
_diffrn_reflns_point_group_measured_fraction_full 0.984
_reflns_number_total             1139
_reflns_number_gt                1001
_reflns_threshold_expression     'I > 2\s(I)'
_reflns_Friedel_coverage         0.000
_reflns_Friedel_fraction_max     .
_reflns_Friedel_fraction_full    .

_reflns_special_details          
;
 Reflections were merged by SHELXL according to the crystal
 class for the calculation of statistics and refinement.
 
 _reflns_Friedel_fraction is defined as the number of unique
 Friedel pairs measured divided by the number that would be
 possible theoretically, ignoring centric projections and
 systematic absences.
;

_computing_data_collection       ?
_computing_cell_refinement       ?
_computing_data_reduction        ?
_computing_structure_solution    ?
_computing_structure_refinement  'SHELXL-2018/3 (Sheldrick, 2018)'
_computing_molecular_graphics    ?
_computing_publication_material  ?
_refine_special_details          ?
_refine_ls_structure_factor_coef Fsqd
_refine_ls_matrix_type           full
_refine_ls_weighting_scheme      calc
_refine_ls_weighting_details     
'w=1/[\s^2^(Fo^2^)+(0.0601P)^2^+0.6178P] where P=(Fo^2^+2Fc^2^)/3'
_atom_sites_solution_primary     ?
_atom_sites_solution_secondary   ?
_atom_sites_solution_hydrogens   geom
_refine_ls_hydrogen_treatment    constr
_refine_ls_extinction_method     none
_refine_ls_extinction_coef       .
_refine_ls_number_reflns         1139
_refine_ls_number_parameters     83
_refine_ls_number_restraints     42
_refine_ls_R_factor_all          0.0410
_refine_ls_R_factor_gt           0.0359
_refine_ls_wR_factor_ref         0.1014
_refine_ls_wR_factor_gt          0.0956
_refine_ls_goodness_of_fit_ref   1.012
_refine_ls_restrained_S_all      0.996
_refine_ls_shift/su_max          0.000
_refine_ls_shift/su_mean         0.000

loop_
_atom_site_label
_atom_site_type_symbol
_atom_site_fract_x
_atom_site_fract_y
_atom_site_fract_z
_atom_site_U_iso_or_equiv
_atom_site_adp_type
_atom_site_occupancy
_atom_site_site_symmetry_order
_atom_site_calc_flag
_atom_site_refinement_flags_posn
_atom_site_refinement_flags_adp
_atom_site_refinement_flags_occupancy
_atom_site_disorder_assembly
_atom_site_disorder_group
Zn1 Zn 0.69472(6) 0.42163(5) 0.63019(5) 0.0146(2) Uani 1 1 d . . . . .
S1 S 0.09872(13) 0.83107(11) 0.53431(9) 0.0227(3) Uani 1 1 d . U . . .
C1 C 0.5137(5) 0.6658(4) 0.7709(4) 0.0203(8) Uani 1 1 d . U . . .
N1 N 0.3686(4) 0.7608(4) 0.7495(3) 0.0176(6) Uani 1 1 d . U . . .
C2 C 0.2907(4) 0.7397(4) 0.6175(3) 0.0160(7) Uani 1 1 d . U . . .
N2 N 0.6322(5) 0.6559(5) 0.8904(4) 0.0383(10) Uani 1 1 d . U . . .
H2A H 0.727325 0.595386 0.898816 0.046 Uiso 1 1 calc R U . . .
H2B H 0.613914 0.710049 0.959411 0.046 Uiso 1 1 calc R U . . .
N5 N 0.9602(4) 0.4894(4) 0.6743(3) 0.0254(7) Uani 1 1 d . . . . .
H5A H 1.032710 0.423195 0.639963 0.038 Uiso 1 1 calc R U . . .
H5B H 0.996410 0.494794 0.765235 0.038 Uiso 1 1 calc R U . . .
H5C H 0.970817 0.580727 0.637417 0.038 Uiso 1 1 calc R U . . .
N3 N 0.5281(4) 0.5897(3) 0.6609(3) 0.0187(7) Uani 1 1 d . U . . .
N4 N 0.3823(4) 0.6376(3) 0.5613(3) 0.0168(6) Uani 1 1 d . U . . .

loop_
_atom_site_aniso_label
_atom_site_aniso_U_11
_atom_site_aniso_U_22
_atom_site_aniso_U_33
_atom_site_aniso_U_23
_atom_site_aniso_U_13
_atom_site_aniso_U_12
Zn1 0.0196(3) 0.0123(3) 0.0124(3) 0.00083(16) 0.0045(2) 0.00008(16)
S1 0.0274(5) 0.0223(6) 0.0175(5) -0.0004(4) 0.0013(4) 0.0095(4)
C1 0.0236(17) 0.0183(19) 0.0186(18) -0.0044(14) 0.0030(14) 0.0035(14)
N1 0.0219(14) 0.0158(15) 0.0158(15) -0.0036(12) 0.0057(11) 0.0036(12)
C2 0.0205(16) 0.0124(17) 0.0161(18) 0.0016(14) 0.0061(13) -0.0005(13)
N2 0.0396(19) 0.050(3) 0.0205(19) -0.0140(17) -0.0065(15) 0.0264(18)
N5 0.0237(15) 0.030(2) 0.0231(18) 0.0010(14) 0.0061(13) -0.0039(14)
N3 0.0241(15) 0.0178(17) 0.0142(16) -0.0020(11) 0.0033(12) 0.0048(12)
N4 0.0223(14) 0.0136(16) 0.0156(15) 0.0023(12) 0.0060(12) 0.0017(11)

_geom_special_details            
;
 All esds (except the esd in the dihedral angle between two l.s. planes)
 are estimated using the full covariance matrix.  The cell esds are taken
 into account individually in the estimation of esds in distances, angles
 and torsion angles; correlations between esds in cell parameters are only
 used when they are defined by crystal symmetry.  An approximate (isotropic)
 treatment of cell esds is used for estimating esds involving l.s. planes.
;

loop_
_geom_bond_atom_site_label_1
_geom_bond_atom_site_label_2
_geom_bond_distance
_geom_bond_site_symmetry_2
_geom_bond_publ_flag
Zn1 N4 1.986(3) 3_666 ?
Zn1 N1 1.997(3) 2_646 ?
Zn1 N3 2.008(3) . ?
Zn1 N5 2.024(3) . ?
S1 C2 1.720(3) . ?
C1 N3 1.324(5) . ?
C1 N1 1.357(5) . ?
C1 N2 1.359(5) . ?
N1 C2 1.365(5) . ?
C2 N4 1.327(5) . ?
N2 H2A 0.8800 . ?
N2 H2B 0.8800 . ?
N5 H5A 0.9100 . ?
N5 H5B 0.9100 . ?
N5 H5C 0.9100 . ?
N3 N4 1.401(4) . ?

loop_
_geom_angle_atom_site_label_1
_geom_angle_atom_site_label_2
_geom_angle_atom_site_label_3
_geom_angle
_geom_angle_site_symmetry_1
_geom_angle_site_symmetry_3
_geom_angle_publ_flag
N4 Zn1 N1 109.95(13) 3_666 2_646 ?
N4 Zn1 N3 106.07(13) 3_666 . ?
N1 Zn1 N3 103.42(13) 2_646 . ?
N4 Zn1 N5 112.91(13) 3_666 . ?
N1 Zn1 N5 114.11(13) 2_646 . ?
N3 Zn1 N5 109.66(14) . . ?
N3 C1 N1 111.9(3) . . ?
N3 C1 N2 125.0(3) . . ?
N1 C1 N2 123.0(3) . . ?
C1 N1 C2 104.4(3) . . ?
C1 N1 Zn1 128.6(3) . 2_656 ?
C2 N1 Zn1 126.2(2) . 2_656 ?
N4 C2 N1 110.9(3) . . ?
N4 C2 S1 124.1(3) . . ?
N1 C2 S1 125.1(3) . . ?
C1 N2 H2A 120.0 . . ?
C1 N2 H2B 120.0 . . ?
H2A N2 H2B 120.0 . . ?
Zn1 N5 H5A 109.5 . . ?
Zn1 N5 H5B 109.5 . . ?
H5A N5 H5B 109.5 . . ?
Zn1 N5 H5C 109.5 . . ?
H5A N5 H5C 109.5 . . ?
H5B N5 H5C 109.5 . . ?
C1 N3 N4 106.0(3) . . ?
C1 N3 Zn1 131.5(3) . . ?
N4 N3 Zn1 122.2(2) . . ?
C2 N4 N3 106.9(3) . . ?
C2 N4 Zn1 121.6(2) . 3_666 ?
N3 N4 Zn1 131.6(2) . 3_666 ?

_refine_diff_density_max         0.898
_refine_diff_density_min         -0.458
_refine_diff_density_rms         0.120

_shelx_res_file                  
;
TITL HN_B_0m_a.res in P2(1)/c
    HN_B_0m.res
    created by SHELXL-2018/3 at 13:42:54 on 29-Aug-2020
REM Old TITL HN_B_0m in P2(1)/c
REM SHELXT solution in P2(1)/c
REM R1 0.165,  Rweak 0.002,  Alpha 0.040,  Orientation as input
REM Formula found by SHELXT:  C5 N O S Zn
CELL  1.54178   7.3863   8.9838  10.0956   90.000  100.464   90.000
ZERR    4.000   0.0006   0.0006   0.0009    0.000    0.006    0.000
LATT  1
SYMM -X, 1/2+Y, 1/2-Z
SFAC C H N S Zn

UNIT 8 20 20  4 4
TEMP -123.150
L.S. 10
BOND $H
LIST 4
acta
size 0.1 0.04 0.005
FMAP 2
simu 0.01 0.02 2
PLAN 20
WGHT    0.060100    0.617800
FVAR       0.62046
ZN1   5    0.694718    0.421633    0.630186    11.00000    0.01956    0.01228 =
         0.01244    0.00083    0.00452    0.00008

S1    4    0.098716    0.831069    0.534309    11.00000    0.02741    0.02225 =
         0.01754   -0.00038    0.00133    0.00947
C1    1    0.513690    0.665762    0.770852    11.00000    0.02358    0.01831 =
         0.01855   -0.00440    0.00298    0.00348
N1    3    0.368595    0.760830    0.749472    11.00000    0.02189    0.01584 =
         0.01583   -0.00362    0.00567    0.00363
C2    1    0.290669    0.739708    0.617547    11.00000    0.02047    0.01240 =
         0.01614    0.00155    0.00606   -0.00049
N2    3    0.632243    0.655908    0.890412    11.00000    0.03959    0.05020 =
         0.02054   -0.01400   -0.00655    0.02640
AFIX  93
H2A   2    0.727325    0.595386    0.898816    11.00000   -1.20000
H2B   2    0.613914    0.710049    0.959411    11.00000   -1.20000
AFIX   0
N5    3    0.960194    0.489414    0.674266    11.00000    0.02365    0.03012 =
         0.02310    0.00097    0.00610   -0.00391
AFIX 137
H5A   2    1.032710    0.423195    0.639963    11.00000   -1.50000
H5B   2    0.996410    0.494794    0.765235    11.00000   -1.50000
H5C   2    0.970817    0.580727    0.637417    11.00000   -1.50000
AFIX   0
N3    3    0.528070    0.589738    0.660942    11.00000    0.02409    0.01775 =
         0.01422   -0.00201    0.00334    0.00485
N4    3    0.382279    0.637586    0.561314    11.00000    0.02228    0.01363 =
         0.01556    0.00231    0.00596    0.00175
HKLF 4




REM  HN_B_0m_a.res in P2(1)/c
REM wR2 = 0.101374, GooF = S = 1.01202, Restrained GooF = 0.99570 for all data
REM R1 = 0.035857 for 1001 Fo > 4sig(Fo) and 0.041034 for all 1139 data
REM 83 parameters refined using 42 restraints

END

WGHT      0.0530      0.6911

REM Highest difference peak  0.898,  deepest hole -0.458,  1-sigma level  0.120
Q1    1   0.8236  0.4216  0.6554  11.00000  0.05    0.90
Q2    1   0.5656  0.4433  0.6139  11.00000  0.05    0.81
Q3    1  -0.0278  0.7993  0.5147  11.00000  0.05    0.48
Q4    1   0.1289  0.7384  0.4567  11.00000  0.05    0.44
Q5    1   0.2293  0.8186  0.5567  11.00000  0.05    0.43
Q6    1   0.7375  0.7253  0.8623  11.00000  0.05    0.40
Q7    1   0.3872  0.8502  0.7808  11.00000  0.05    0.39
Q8    1   0.5874  0.3802  0.6993  11.00000  0.05    0.39
Q9    1   0.3183  0.8038  0.8079  11.00000  0.05    0.38
Q10   1   0.8918  0.5736  0.7367  11.00000  0.05    0.35
Q11   1   0.6830  0.5333  0.9184  11.00000  0.05    0.35
Q12   1   0.5967  0.4689  0.7045  11.00000  0.05    0.35
Q13   1   0.7201  0.3028  0.5622  11.00000  0.05    0.34
Q14   1   0.6775  0.5455  0.6743  11.00000  0.05    0.33
Q15   1   1.2215  0.5558  0.8572  11.00000  0.05    0.33
Q16   1   0.0782  0.9224  0.5902  11.00000  0.05    0.32
Q17   1   0.8893  0.5445  0.8340  11.00000  0.05    0.31
Q18   1   0.9947  0.7374  0.7402  11.00000  0.05    0.30
Q19   1   0.0047  0.7775  0.6143  11.00000  0.05    0.30
Q20   1   0.9159  0.2511  0.6628  11.00000  0.05    0.30
;
_shelx_res_checksum              57817

_shelx_hkl_file                  
;
  -1   0   0 1504.88 74.7267   3
  -2   0   0 68.4434 9.44993   3
  -3   0   0 3855.12 186.182   3
   3   0   0 3487.95 181.332   4
  -4   0   0 114.487 17.1230   3
   4   0   0 103.772 15.1778   4
   5   0   0 2618.14 147.017   4
  -5   0   0 2576.22 129.812   1
  -5   0   0 2867.38 153.627   3
   6   0   0 81.4345 20.3528   4
  -6   0   0 92.0210 9.74502   1
   7   0   0 18.9197 5.44988   1
  -7   0   0 15.7443 4.55266   1
   8   0   0 82.5392 7.99070   1
  -8   0   0 74.2215 7.97289   1
   0   1   0 0.14348 1.65731   3
   0   1   0 0.15365 0.83545   4
  -1   1   0 4514.46 215.064   3
   2   1   0 25.0927 6.97148   4
  -2   1   0 26.8403 7.46579   3
   3  -1   0 40.7110 7.56594   4
  -3  -1   0 49.2278 12.1676   3
   3   1   0 45.2891 14.8157   4
  -3   1   0 38.8003 11.4552   3
  -4  -1   0 1596.48 93.9747   3
   4  -1   0 1546.72 87.4196   4
  -4  -1   0 1494.75 82.2560   1
   4   1   0 1580.83 92.4981   4
  -4   1   0 1633.57 99.3385   3
  -5  -1   0 81.2578 19.5104   3
   5  -1   0 63.0670 14.6975   4
  -5  -1   0 67.1342 7.94672   1
   5   1   0 67.4653 8.23921   1
  -5   1   0 73.3436 18.6440   3
   5   1   0 54.0537 15.5276   4
  -5   1   0 66.7167 7.87174   1
   6  -1   0 168.406 25.6554   4
  -6  -1   0 192.261 15.4665   1
  -6   1   0 190.914 14.7817   1
   6   1   0 168.738 26.9917   4
   6   1   0 190.491 15.6057   1
   7  -1   0 44.3016 8.07060   1
  -7  -1   0 29.4205 5.72652   1
   7   1   0 35.6989 6.78350   1
   7   1   0 21.1888 15.8906   4
  -7   1   0 42.7522 5.90397   1
  -8  -1   0 3.18381 1.80066   1
   8  -1   0 -1.8812 1.82097   1
  -8   1   0 1.78600 2.16951   1
   8   1   0 -0.6462 1.60069   1
   0   2   0 2.15627 1.71845   4
   0   2   0 1.25735 3.58029   3
  -1   2   0 69.5909 11.2986   3
   1   2   0 70.7634 9.30512   4
   2  -2   0 35.0788 4.85138   4
   2   2   0 47.9306 10.3370   4
  -2   2   0 54.3019 10.0523   3
   3  -2   0 311.579 21.5543   4
  -3   2   0 302.387 30.9125   3
   3   2   0 341.788 29.1379   4
  -4  -2   0 571.134 32.5677   1
   4  -2   0 591.685 38.2475   4
  -4  -2   0 612.638 49.4448   3
  -4   2   0 586.598 50.0214   3
  -4   2   0 565.957 31.3613   1
   4   2   0 564.812 32.5652   1
   4   2   0 534.948 44.8744   4
  -5  -2   0 79.1602 8.70725   1
  -5  -2   0 64.6534 20.1377   3
   5  -2   0 60.9643 14.6050   4
  -5   2   0 76.5974 7.97151   1
   5   2   0 80.2849 8.73927   1
  -5   2   0 80.3508 20.3623   3
   5   2   0 61.4680 15.2237   4
  -6  -2   0 174.559 14.8566   1
  -6   2   0 165.885 13.3142   1
   6   2   0 180.388 14.4979   1
   6   2   0 146.219 25.8862   4
  -7  -2   0 166.056 13.7713   1
   7   2   0 149.463 12.4406   1
   7   2   0 216.735 33.4092   4
  -7   2   0 148.501 11.6527   1
   8  -2   0 213.723 17.3074   1
  -8  -2   0 205.118 16.1172   1
   0   3   0 -2.4019 3.83530   3
   0   3   0 -0.1292 1.70749   4
   1   3   0 1202.20 69.0683   4
  -1   3   0 1384.01 79.5673   3
  -2   3   0 341.311 33.6043   3
   2   3   0 395.116 30.4241   4
   3   3   0 712.867 51.0971   4
  -3   3   0 689.520 56.7892   3
  -4  -3   0 1390.13 91.6362   3
  -4  -3   0 1266.63 65.0451   1
  -4   3   0 1279.86 62.9570   1
  -4   3   0 1285.44 91.0769   3
   4   3   0 1042.05 71.2169   1
   4   3   0 1364.25 84.4126   4
  -4   3   0 1227.79 65.2510   5
  -5  -3   0 63.3530 8.22457   1
  -5  -3   0 53.1822 18.8107   3
  -5   3   0 76.8149 9.01504   5
  -5   3   0 61.3530 18.9436   3
   5   3   0 67.0802 8.40757   1
  -5   3   0 74.4571 7.90060   1
   5   3   0 51.6898 14.4042   4
  -6  -3   0 358.487 23.7350   1
  -6   3   0 293.194 20.3821   1
   6   3   0 353.717 43.0501   4
   6   3   0 392.668 22.7320   1
  -7  -3   0 214.832 15.9827   1
   7   3   0 187.075 33.3370   4
   8  -3   0 65.9280 7.47155   1
  -8  -3   0 69.1022 6.87222   1
   0   4   0 879.931 48.6618   4
  -1   4   0 409.337 40.2168   3
   1   4   0 409.898 30.2215   4
   2  -4   0 8.75312 3.39204   2
   2   4   0 7.32026 4.91849   4
  -2   4   0 0.16540 5.90506   3
   3  -4   0 14.1543 4.37529   2
   3   4   0 11.3933 5.10722   4
  -3   4   0 4.11231 6.75406   3
   4  -4   0 51.1933 8.71375   2
  -4  -4   0 53.2379 7.81373   1
  -4   4   0 64.1984 8.56024   5
   4   4   0 100.572 22.9890   4
  -4   4   0 41.9138 16.2247   3
  -4   4   0 49.0319 7.52669   1
   4   4   0 53.6990 6.93122   1
  -5  -4   0 241.372 18.3109   1
  -5  -4   0 240.894 37.6734   3
  -5   4   0 252.478 19.0574   5
   5   4   0 274.222 33.8645   4
  -5   4   0 239.040 38.0072   3
   5   4   0 234.969 16.5802   1
  -6  -4   0 4.84527 3.51482   1
   6   4   0 3.45714 3.12527   1
   6   4   0 -2.4571 10.3727   4
  -6   4   0 -0.9025 3.78909   5
  -7  -4   0 -2.7648 1.05682   1
  -8  -4   0 -0.2605 1.26848   1
   8  -4   0 0.14652 2.00320   1
   0   5   0 2.17104 3.31443   4
   1   5   0 759.705 49.1383   4
   2  -5   0 1520.43 81.1965   2
  -2   5   0 1612.86 113.386   3
   2   5   0 1634.95 94.8480   4
   3  -5   0 630.429 37.1089   2
  -3  -5   0 620.354 36.0892   1
   3   5   0 663.990 52.6806   4
  -3   5   0 535.027 59.3318   3
  -3   5   0 650.365 37.4993   5
  -4  -5   0 295.715 21.6241   1
   4   5   0 384.922 39.5776   4
  -4   5   0 296.584 22.5012   5
  -4   5   0 317.846 44.4397   3
  -5  -5   0 12.8663 4.20998   1
  -5   5   0 15.4395 5.03671   5
   5   5   0 7.90211 6.96973   4
  -6  -5   0 41.7363 7.33537   1
   6   5   0 47.6542 17.1221   4
  -6   5   0 41.0100 6.68901   5
  -7  -5   0 364.201 22.3338   1
   0   6   0 501.420 34.7231   4
  -1  -6   0 925.447 52.3667   1
   1   6   0 1021.25 62.5844   4
   2  -6   0 1632.01 84.5510   2
  -2  -6   0 1602.01 81.6277   1
   2   6   0 1557.80 97.1856   4
   3  -6   0 1138.84 59.1937   2
   3   6   0 978.154 74.3318   4
  -3   6   0 1025.69 58.4294   5
  -4  -6   0 272.711 20.9429   1
  -4   6   0 296.154 22.1771   5
   4   6   0 295.361 37.0139   4
  -5  -6   0 258.849 19.2075   1
  -5   6   0 265.154 19.9388   5
   5   6   0 257.741 33.7747   4
  -6  -6   0 387.332 23.3822   1
  -6   6   0 332.400 22.2341   5
  -7  -6   0 298.667 18.2863   1
   0  -7   0 -4.1800 4.71781   1
  -1  -7   0 84.9324 11.3332   1
   1   7   0 108.024 20.2936   4
   2  -7   0 765.654 48.4861   2
  -2  -7   0 828.969 45.1125   1
   2   7   0 764.996 59.8676   4
  -2   7   0 808.070 47.2301   5
  -3  -7   0 264.278 20.7135   1
   3  -7   0 300.998 22.8351   2
  -3   7   0 306.516 23.4253   5
   3   7   0 305.967 36.9453   4
  -4  -7   0 8.17624 4.34365   1
   4   7   0 11.5054 11.6280   4
  -4   7   0 10.7025 4.71732   5
  -5  -7   0 69.1005 8.38212   1
  -5   7   0 75.9929 9.02070   5
  -6  -7   0 -1.7226 1.66099   1
  -6   7   0 3.56403 1.97761   5
   0   8   0 326.882 24.2321   5
  -1  -8   0 -8.2358 4.43641   1
   1  -8   0 0.79440 4.36423   2
   1   8   0 1.37423 3.91715   5
  -1   8   0 2.69727 3.14147   5
   2  -8   0 99.1300 13.3437   2
  -2  -8   0 100.129 17.5240   1
  -2   8   0 112.833 13.2039   5
  -3  -8   0 26.5208 5.64417   1
  -3   8   0 24.6772 6.72421   5
  -4  -8   0 21.2229 5.62761   1
  -4   8   0 8.44004 4.05639   5
  -5  -8   0 500.113 28.9869   1
  -5   8   0 507.817 29.6547   5
   0  -9   0 -5.5942 3.74849   2
   0   9   0 -1.5545 2.50649   5
   1  -9   0 230.209 25.0893   2
  -1   9   0 266.366 20.2396   5
   2  -9   0 21.1911 7.64902   2
  -2   9   0 44.0140 8.55534   5
  -3  -9   0 180.142 14.1653   1
  -3   9   0 161.743 14.7962   5
  -4  -9   0 320.072 20.0876   1
   0 -10   0 12.1626 5.70784   2
   0  10   0 19.4266 4.55579   5
  -1 -10   0 0.76351 3.45635   2
   1 -10   0 4.56763 4.87813   2
  -1  10   0 0.39682 2.14582   5
  -2  10   0 -2.9119 1.58318   5
  -3  10   0 0.78209 1.67015   5
   8   0  -1 -1.5337 2.04801   1
  -8   0   1 0.67217 1.77563   1
  -7   0   1 0.59282 2.28542   1
   7   0  -1 -3.1746 2.27667   1
   6   0  -1 11.2326 7.52232   4
  -6   0   1 -1.8581 2.04260   1
   5   0  -1 4.60459 5.16751   4
  -5   0   1 1.77407 2.45469   1
  -4   0   1 -3.4628 5.11362   3
   4   0  -1 0.53766 3.47261   4
  -3   0   1 -3.0489 2.75709   3
   3   0  -1 3.92155 3.63661   4
   2   0  -1 -2.9436 1.61176   4
  -2   0   1 -0.0047 1.80431   3
   1   0  -1 0.68393 1.33064   4
   0   0  -1 2.04797 1.56866   4
   0   0  -1 1.03544 1.89676   3
  -1   0  -1 2.02795 3.49698   3
  -2   0  -1 -1.5651 3.06777   3
  -3   0  -1 -2.2214 3.82946   3
  -4   0  -1 0.96533 1.90707   1
   4   0   1 -2.0620 3.32402   4
  -4   0  -1 4.49770 5.78662   3
   5   0   1 3.80691 4.62135   4
  -5   0  -1 -2.1664 1.85946   1
  -5   0  -1 3.34764 8.05679   3
  -6   0  -1 -0.2069 2.10524   1
  -6   0  -1 -27.552 19.0342   3
   6   0   1 -0.2211 1.92686   1
   6   0   1 -7.7394 8.53932   4
  -7   0  -1 1.09630 1.83989   1
   7   0   1 0.67823 2.20165   1
  -8   0  -1 1.29875 2.04912   1
   8   0   1 0.06186 2.08825   1
  -8  -1   1 238.885 15.7799   1
   8  -1  -1 211.654 15.6919   1
  -8   1   1 206.104 16.0528   1
   8   1  -1 211.181 13.7247   1
  -7  -1   1 37.0865 7.11874   1
   7   1  -1 47.1212 17.9689   4
  -7   1   1 40.1468 7.22257   1
   7   1  -1 28.9165 5.95677   1
  -6  -1   1 1023.99 55.8311   1
   6  -1  -1 1052.79 70.1122   4
  -6   1   1 1068.52 55.6246   1
   6   1  -1 972.380 74.0743   4
   6   1  -1 1046.71 55.7212   1
  -5  -1   1 253.504 17.7130   1
   5  -1  -1 281.423 26.5637   4
   5   1  -1 283.951 30.0654   4
  -5   1   1 239.228 17.2820   1
  -5   1   1 237.988 25.5996   3
  -4  -1   1 230.235 21.4469   3
   4  -1  -1 198.903 15.6747   2
   4   1  -1 235.819 24.1509   4
  -4   1   1 224.095 22.4810   3
   3  -1  -1 1042.52 59.9332   4
  -3  -1   1 1179.43 62.1033   3
  -3   1   1 1128.79 63.9974   3
   3   1  -1 1051.43 68.1119   4
   2   1  -1 8.70201 4.41084   4
   1  -1  -1 6217.62 271.061   4
  -1   1   1 6022.12 275.680   3
   1   1  -1 5328.56 274.037   4
   0   1  -1 1633.40 79.3108   4
   0   1  -1 1615.91 81.8772   3
  -1   1  -1 542.435 35.5474   3
  -2   1  -1 1528.36 87.1192   3
  -3  -1  -1 819.978 59.5394   3
  -3   1  -1 820.054 58.4734   3
  -4  -1  -1 1928.05 95.8978   1
   4  -1   1 1963.38 108.474   4
  -4  -1  -1 2117.65 121.188   3
   4   1   1 1790.24 96.0842   1
  -4   1  -1 2075.18 120.911   3
  -4   1  -1 1916.35 95.3304   1
  -5  -1  -1 75.3503 20.2352   3
  -5  -1  -1 56.3337 7.69555   1
   5  -1   1 52.9372 14.0532   4
   5   1   1 75.3945 8.36364   1
  -5   1  -1 65.5867 7.49181   1
  -5   1  -1 63.1095 21.8277   3
   5   1   1 80.3593 20.0630   4
   6  -1   1 -8.7771 11.9835   4
  -6  -1  -1 8.31477 3.76453   1
  -6   1  -1 4.34000 3.09074   1
  -6   1  -1 -3.1221 17.9914   3
   6   1   1 6.07295 3.38153   1
   6   1   1 1.73985 7.00765   4
  -7  -1  -1 680.533 37.6023   1
   7  -1   1 693.652 39.8596   1
  -7   1  -1 648.889 35.5641   1
   7   1   1 638.583 38.1670   1
   7   1   1 693.008 66.8121   4
  -8  -1  -1 79.3459 6.78108   1
   8  -1   1 91.1889 9.47877   1
   8   1   1 78.7655 7.51234   1
  -8  -2   1 0.14226 1.69304   1
   8  -2  -1 4.91688 2.40457   1
  -8   2   1 1.82834 2.25249   1
  -7  -2   1 756.037 41.6281   1
  -7   2   1 723.601 39.4818   1
   7   2  -1 675.464 38.5778   1
   7   2  -1 737.148 62.3125   4
  -6  -2   1 6.11360 3.72500   1
   6   2  -1 -1.0900 7.66556   4
  -6   2   1 4.72270 2.68219   1
   6   2  -1 3.99709 2.85532   1
   5  -2  -1 825.556 62.2807   4
   5  -2  -1 807.492 58.9930   2
  -5  -2   1 877.923 48.3372   1
   5   2  -1 983.894 48.7169   1
  -5   2   1 946.431 47.8343   1
  -5   2   1 897.967 64.9347   3
   5   2  -1 893.520 67.0389   4
  -4  -2   1 242.351 23.7914   3
   4  -2  -1 195.024 18.2295   4
  -4  -2   1 209.884 14.9196   1
   4  -2  -1 209.130 16.4976   2
  -4   2   1 209.237 14.4442   1
  -4   2   1 205.051 24.2228   3
   4   2  -1 200.438 24.4675   4
   3   2  -1 68.0310 11.7695   4
  -3   2   1 55.5847 11.7381   3
  -2   2   1 9098.41 451.808   3
   2   2  -1 9999.99 450.930   4
   1   2  -1 2894.09 148.211   4
  -1   2   1 3220.25 154.816   3
   0   2  -1 133.614 11.3136   4
   0   2  -1 142.023 15.3809   3
  -1   2  -1 139.245 16.5496   3
  -2   2  -1 522.735 41.6626   3
  -3   2  -1 2841.54 158.722   3
  -4  -2  -1 285.945 35.6120   3
   4  -2   1 284.913 25.8244   4
  -4  -2  -1 294.511 19.5230   1
  -4   2  -1 324.768 37.5830   3
   4   2   1 281.352 30.3856   4
  -4   2  -1 306.764 19.8603   1
   4   2   1 279.083 19.2432   1
  -5  -2  -1 104.646 18.4304   1
   5  -2   1 65.6675 14.3913   4
  -5  -2  -1 55.2583 20.6631   3
   5   2   1 85.8376 21.7483   4
  -5   2  -1 88.9861 8.41774   1
  -5   2  -1 75.7364 22.0554   3
  -5   2  -1 74.8218 8.88766   5
   5   2   1 72.0810 10.4520   1
  -6  -2  -1 8.58419 3.62281   1
  -6   2  -1 10.8560 3.74083   1
   6   2   1 20.0711 12.8513   4
  -6   2  -1 20.7541 19.1273   3
   6   2   1 9.09095 3.51508   1
  -7  -2  -1 1.24792 2.04529   1
   7  -2   1 3.28598 3.22665   1
  -7   2  -1 -4.2896 5.93215   1
   7   2   1 -2.6833 14.3137   4
   7   2   1 4.28711 2.68233   1
  -8  -2  -1 615.163 33.8878   1
   8  -2   1 758.202 36.9056   1
   8   2   1 607.047 32.9572   1
   8  -3  -1 34.2748 5.88927   1
  -8  -3   1 49.5176 5.86264   1
  -7  -3   1 63.8456 8.44741   1
   7   3  -1 48.5963 19.1564   4
  -6  -3   1 116.608 11.2460   1
   6   3  -1 79.3319 8.21043   1
   6   3  -1 87.5481 20.5409   4
   5  -3  -1 440.281 28.7234   2
  -5  -3   1 421.884 28.9709   1
   5   3  -1 431.626 43.9284   4
   5   3  -1 443.231 26.0818   1
  -5   3   1 466.451 26.1761   1
  -5   3   1 413.867 27.2404   5
  -5   3   1 426.029 44.0266   3
  -4  -3   1 323.089 33.9288   3
   4  -3  -1 300.947 21.9097   2
  -4  -3   1 322.083 21.9982   1
  -4   3   1 310.825 34.3413   3
   4   3  -1 291.975 32.2846   4
  -4   3   1 321.738 22.4770   5
   3  -3  -1 24.6671 5.28647   2
   3   3  -1 19.2518 8.93488   4
  -3   3   1 22.4115 9.38435   3
   2   3  -1 45.9470 12.8426   4
  -2   3   1 40.6006 12.0718   3
   1   3  -1 739.890 44.0964   4
   0   3  -1 1313.87 77.8982   3
   0   3  -1 1286.81 67.4951   4
   0   3   1 1292.71 66.7395   4
  -1   3  -1 666.554 36.7606   4
  -1   3  -1 635.899 48.4527   3
   1   3   1 596.357 40.1203   4
   2   3   1 156.007 18.3549   4
  -2   3  -1 160.575 23.5843   3
   3   3   1 72.9601 16.8781   4
  -3   3  -1 57.7725 17.4462   3
  -4  -3  -1 24.0603 11.9078   3
  -4  -3  -1 26.0060 5.05825   1
  -4   3  -1 25.1490 13.0486   3
   4   3   1 28.6688 9.98462   4
   4   3   1 24.0694 4.80460   1
  -4   3  -1 30.7372 5.91444   5
  -5  -3  -1 176.989 15.0400   1
  -5  -3  -1 206.203 32.6261   3
   5   3   1 206.145 15.5732   1
  -5   3  -1 157.828 32.1063   3
  -5   3  -1 179.684 15.3024   5
   5   3   1 186.511 27.2561   4
  -6  -3  -1 21.4843 5.24254   1
  -6   3  -1 31.0192 6.72960   5
   6   3   1 24.6829 5.43551   1
   6   3   1 18.9760 11.6014   4
  -6   3  -1 36.9562 25.3201   3
  -7  -3  -1 -0.7931 1.74566   1
  -8  -3  -1 57.8289 5.78611   1
   8  -3   1 53.0405 6.36250   1
  -8  -4   1 150.230 11.3272   1
   8  -4  -1 167.975 12.4102   1
  -7  -4   1 113.539 10.6189   1
  -6  -4   1 61.0786 8.28308   1
   6   4  -1 36.5738 15.8488   4
  -6   4   1 67.1927 11.7496   5
  -5  -4   1 343.593 23.9360   1
   5  -4  -1 363.293 25.7075   2
  -5   4   1 369.132 24.5463   5
   5   4  -1 346.564 39.8904   4
  -5   4   1 384.750 22.1852   1
  -4  -4   1 1636.00 80.4762   1
   4   4  -1 1712.05 103.333   4
  -4   4   1 1551.13 80.5785   5
  -4   4   1 1595.88 77.5646   1
  -4   4   1 1387.42 105.464   3
   3  -4  -1 684.438 40.6563   2
  -3   4   1 695.837 60.2822   3
   3   4  -1 763.135 54.7551   4
   2  -4  -1 279.939 19.9388   2
   2   4  -1 320.049 28.0127   4
  -2   4   1 292.515 34.1178   3
   1   4  -1 372.786 28.3959   4
   0   4   1 1213.99 66.6286   4
   0   4  -1 1292.22 68.6834   4
   0   4  -1 1318.53 85.0700   3
  -1   4  -1 2706.64 152.773   3
   1   4   1 2392.21 130.562   4
  -1   4  -1 2556.64 123.925   4
  -2   4  -1 1011.37 76.9714   3
   2   4   1 994.753 64.3420   4
  -3   4  -1 830.996 46.1722   5
   3   4   1 866.493 44.6470   1
   3   4   1 831.779 60.4839   4
  -3   4  -1 819.765 71.8306   3
  -4  -4  -1 549.828 34.0937   1
  -4  -4  -1 638.976 62.1604   3
  -4   4  -1 628.643 74.2438   3
  -4   4  -1 554.555 34.8298   5
   4   4   1 596.089 33.6487   1
  -5  -4  -1 273.134 19.7105   1
  -5  -4  -1 284.671 40.6363   3
  -5   4  -1 248.836 19.5597   5
  -5   4  -1 275.653 40.5717   3
   5   4   1 269.391 34.0859   4
   5   4   1 265.841 18.6695   1
  -6  -4  -1 894.425 47.8944   1
  -6   4  -1 863.168 47.0002   5
   6   4   1 839.722 45.1126   1
   6   4   1 856.552 70.1371   4
  -7  -4  -1 52.0631 6.67122   1
  -7  -5   1 56.7798 6.93139   1
  -6  -5   1 352.215 23.3076   1
  -6   5   1 337.437 22.3838   5
   6   5  -1 354.111 39.7822   4
  -5  -5   1 370.836 24.1570   1
   5   5  -1 302.339 38.6738   4
  -5   5   1 348.288 24.1985   5
  -4  -5   1 231.202 18.2748   1
   4  -5  -1 234.042 19.1086   2
  -4   5   1 256.874 19.3071   5
   4   5  -1 229.028 31.0383   4
  -3  -5   1 846.798 49.5712   1
   3  -5  -1 829.078 49.5421   2
   3   5  -1 983.585 67.2892   4
   2  -5  -1 52.3433 8.22046   2
   2   5  -1 48.6731 12.8877   4
   1   5  -1 723.604 48.2826   4
   0   5  -1 1656.77 86.2342   4
   0   5   1 1523.70 82.6969   4
  -1   5  -1 170.668 30.1923   3
   1   5   1 142.800 17.6699   4
   2  -5   1 651.896 39.5427   2
  -2  -5  -1 750.824 39.7996   1
  -2   5  -1 703.747 40.9363   5
  -2   5  -1 738.538 68.0808   3
   2   5   1 713.529 52.3272   4
  -3  -5  -1 6.82925 3.78133   1
  -3   5  -1 12.1422 10.1286   3
   3   5   1 17.4770 11.7539   4
   3   5   1 9.27106 4.13058   1
  -3   5  -1 18.4448 4.73303   5
  -4  -5  -1 52.8661 7.69336   1
  -4   5  -1 44.1752 8.62755   5
   4   5   1 47.6167 6.70571   1
  -4   5  -1 61.8497 23.0831   3
   4   5   1 59.2480 17.4759   4
  -5  -5  -1 497.813 30.1966   1
  -5  -5  -1 294.053 77.6288   3
  -5   5  -1 567.052 82.2691   3
  -5   5  -1 481.330 30.1608   5
   5   5   1 448.327 48.0289   4
  -6  -5  -1 215.473 16.8425   1
  -6   5  -1 245.798 17.5406   5
   6   5   1 252.191 31.7569   4
  -7  -5  -1 102.793 9.89778   1
  -7  -6   1 14.5985 3.68086   1
  -6  -6   1 30.7592 5.36561   1
  -6   6   1 42.2099 6.95340   5
  -5  -6   1 2.44240 2.66622   1
  -5   6   1 0.46291 2.56525   5
   5   6  -1 9.49954 11.8905   4
  -4  -6   1 1.39439 2.50296   1
   4   6  -1 -13.670 7.19369   4
  -3  -6   1 6.22812 3.66200   1
   3  -6  -1 0.39089 3.38266   2
   3   6  -1 2.12861 6.59535   4
   2  -6  -1 5.10751 3.21814   2
  -2  -6   1 19.2520 5.35418   1
   2   6  -1 6.22675 5.20351   4
   1   6  -1 4.58809 5.93153   4
   1   6  -1 17.9071 5.85111   5
   0  -6  -1 200.654 16.3544   1
   0   6   1 192.589 24.2909   4
  -1  -6  -1 33.4410 6.33937   1
   1   6   1 46.9620 12.1622   4
  -1   6  -1 50.0043 8.57646   5
  -2  -6  -1 0.95513 2.80997   1
   2  -6   1 1.67608 3.80964   2
  -2   6  -1 -5.6076 2.35574   5
   2   6   1 1.28635 4.80502   4
  -2   6  -1 -1.8465 6.04273   3
  -3  -6  -1 192.382 16.1755   1
   3   6   1 207.459 27.5108   4
  -3   6  -1 196.558 17.4018   5
  -4  -6  -1 27.9562 6.21036   1
   4   6   1 49.9364 17.9235   4
  -4   6  -1 34.0973 20.6779   3
  -4   6  -1 25.0482 6.55777   5
  -5  -6  -1 -2.5061 1.58833   1
  -5   6  -1 -0.3808 2.59134   5
   5   6   1 4.02878 9.62412   4
  -6  -6  -1 70.3454 8.03174   1
  -6   6  -1 56.1213 10.1998   5
  -6  -7   1 269.149 17.5837   1
  -6   7   1 260.027 17.0237   5
  -5  -7   1 314.458 21.9506   1
  -5   7   1 338.070 23.0734   5
   4  -7  -1 148.896 16.1269   2
  -4  -7   1 165.306 14.2238   1
  -4   7   1 154.549 15.4074   5
   4   7  -1 171.182 31.6874   4
  -3  -7   1 471.117 29.7384   1
   3  -7  -1 466.300 32.8351   2
  -3   7   1 458.918 31.2813   5
   3   7  -1 458.800 46.1228   4
   2  -7  -1 6.97314 5.12782   2
   2   7  -1 12.9348 11.1876   4
   1   7  -1 727.502 54.0541   4
   0  -7  -1 851.815 47.4805   1
   0   7  -1 797.759 47.5586   5
  -1  -7  -1 331.338 22.8050   1
  -1   7  -1 301.666 23.6915   5
   2  -7   1 1202.19 64.8823   2
  -2  -7  -1 1118.18 62.3005   1
  -2   7  -1 1167.55 64.6721   5
   2   7   1 1172.74 79.3917   4
  -3  -7  -1 5.24732 2.87355   1
   3   7   1 -7.6544 8.78426   4
  -3   7  -1 1.35285 2.67449   5
  -4  -7  -1 207.794 16.5217   1
  -4   7  -1 207.546 17.6780   5
   4   7   1 175.082 30.4077   4
  -5  -7  -1 779.127 42.6598   1
  -5   7  -1 745.990 42.7875   5
  -6  -7  -1 27.5989 4.64331   1
  -6   7  -1 25.1526 4.16746   5
  -5  -8   1 66.9562 7.79201   1
  -5   8   1 77.6123 8.65229   5
  -4  -8   1 268.843 19.1256   1
  -4   8   1 258.746 20.0332   5
  -3  -8   1 128.358 11.4848   1
   3  -8  -1 115.578 14.8608   2
  -3   8   1 113.424 13.2930   5
  -2  -8   1 56.7010 15.7080   1
   2  -8  -1 50.0995 11.3491   2
  -2   8   1 66.7288 11.0429   5
   1  -8  -1 54.3792 11.9358   2
   0   8  -1 215.622 18.2783   5
   1  -8   1 898.233 53.0895   2
  -1  -8  -1 852.996 48.8438   1
  -1   8  -1 827.518 50.0734   5
  -2  -8  -1 301.264 22.8075   1
   2  -8   1 288.295 22.9672   2
  -3  -8  -1 245.769 19.0622   1
  -3   8  -1 284.866 21.4263   5
  -4  -8  -1 306.009 21.3476   1
  -4   8  -1 329.065 22.4291   5
  -5  -8  -1 15.3724 3.80411   1
  -5   8  -1 15.8239 3.69230   5
  -4  -9   1 0.18948 4.43278   1
  -4   9   1 6.97009 3.23945   5
  -3  -9   1 68.0878 8.79113   1
  -3   9   1 56.2700 8.02240   5
   2  -9  -1 37.4858 8.63398   2
  -2   9   1 29.7511 6.72108   5
   1  -9  -1 292.632 26.7448   2
  -1   9   1 241.800 20.1896   5
   0  -9   1 121.058 21.9959   2
   0  -9  -1 141.017 15.9421   2
   0   9   1 109.611 12.1051   5
   0   9  -1 124.088 12.1775   5
   1  -9   1 8.21053 4.94141   2
  -1   9  -1 3.72223 3.20469   5
   1   9   1 4.69051 3.08360   5
  -2  -9  -1 74.8163 9.00878   1
  -2   9  -1 68.6880 9.05724   5
  -3  -9  -1 8.20251 3.51739   1
  -3   9  -1 5.47967 2.51128   5
  -4  -9  -1 149.159 11.7949   1
  -3  10   1 13.8827 4.04485   5
   2 -10  -1 640.992 48.4443   2
  -2  10   1 935.176 44.7380   5
   1 -10  -1 16.4901 8.15225   2
  -1 -10   1 29.7237 7.70760   2
  -1  10   1 35.7466 6.41625   5
   0 -10   1 134.544 14.1606   2
   0 -10  -1 147.302 15.0879   2
   0  10   1 135.004 11.1178   5
   0  10  -1 142.400 10.6653   5
  -1 -10  -1 54.9785 8.46217   2
  -1  10  -1 33.9794 6.14740   5
  -2 -10  -1 7.21244 3.74318   2
  -8   0   2 46.2069 6.13426   1
   8   0  -2 40.2023 6.66568   1
  -7   0   2 1084.48 58.2113   1
   7   0  -2 1038.13 56.8662   1
   6   0  -2 48.2592 13.4044   4
  -6   0   2 63.1292 7.89856   1
   5   0  -2 177.287 22.6745   4
  -5   0   2 182.816 14.1162   1
   4   0  -2 3105.61 161.216   2
   4   0  -2 3606.50 173.183   4
   3   0  -2 605.601 39.0645   4
   3   0  -2 588.641 33.9024   2
   2   0  -2 94.9779 10.2938   4
   1   0  -2 63.4924 8.01161   4
   1   0  -2 70.7772 6.67640   3
   0   0  -2 2.43952 3.94723   4
   0   0  -2 2.77621 3.97145   3
  -1   0  -2 3275.30 167.616   3
  -2   0  -2 876.915 60.1309   3
  -3   0  -2 1122.37 77.2557   3
  -4   0  -2 53.1749 15.4989   3
  -4   0  -2 59.4520 7.07057   1
   5   0   2 0.66221 4.88180   4
   5   0   2 7.55385 4.65744   1
  -5   0  -2 7.13593 14.5932   3
  -5   0  -2 2.92589 2.78611   1
   6   0   2 1547.79 79.0915   1
  -6   0  -2 1292.53 111.265   3
  -6   0  -2 1601.63 76.7079   1
   6   0   2 1581.98 101.892   4
  -7   0  -2 773.368 41.2600   1
   7   0   2 827.866 45.1492   1
   8   0   2 89.9016 8.00226   1
   8  -1  -2 255.646 16.9601   1
  -8  -1   2 243.505 17.2003   1
  -8   1   2 245.600 16.4534   1
   7   1  -2 37.5394 17.2408   4
   7   1  -2 2.24844 2.61692   1
   6  -1  -2 -12.209 11.1965   4
  -6  -1   2 13.1317 3.91336   1
   6   1  -2 -3.6910 6.86522   4
   6   1  -2 4.72185 3.33981   1
  -6   1   2 -1.8195 2.02489   1
  -5  -1   2 1.35224 2.10828   1
   5  -1  -2 2.98213 3.45866   2
   5  -1  -2 6.50361 7.39096   4
  -5   1   2 1.22914 1.82607   1
   5   1  -2 4.47088 4.31876   4
   4  -1  -2 54.7339 7.61721   2
   4   1  -2 50.3167 12.2938   4
  -4   1   2 54.9329 8.12864   1
   3  -1  -2 1619.14 85.1058   4
   3  -1  -2 1633.77 81.8313   2
   3   1  -2 1608.82 81.5513   2
   3   1  -2 1660.60 89.8752   4
   2  -1  -2 65.5649 7.54850   4
   2   1  -2 56.7826 9.03579   4
   1  -1  -2 56.2819 7.94109   4
   1   1  -2 39.8335 6.22715   3
   1   1  -2 43.1033 7.11763   4
   0   1  -2 59.7813 9.11354   3
   0   1  -2 58.0862 8.50749   4
  -1   1  -2 486.281 36.7144   3
  -2  -1  -2 2438.36 137.487   3
  -2   1  -2 2479.06 136.838   3
  -3  -1  -2 39.2340 12.9869   3
  -3   1  -2 32.6023 12.8052   3
  -4  -1  -2 2.26785 2.26616   1
  -4  -1  -2 -4.0566 4.00130   3
  -4   1  -2 0.21888 6.21294   3
   4   1   2 1.79947 2.05494   1
  -4   1  -2 2.85685 2.20763   1
  -5  -1  -2 160.430 30.7249   3
  -5  -1  -2 167.503 13.6862   1
   5  -1   2 228.832 45.5702   4
   5   1   2 158.285 25.1963   4
  -5   1  -2 164.760 12.6404   1
  -5   1  -2 229.694 33.6982   3
   5   1   2 140.806 13.2783   1
   6  -1   2 487.762 45.9512   4
  -6  -1  -2 476.659 27.4442   1
  -6  -1  -2 335.534 49.0813   3
   6  -1   2 470.827 29.4806   1
   6   1   2 512.564 53.0991   4
   6   1   2 427.001 28.0681   1
  -6   1  -2 426.677 25.4882   1
  -6   1  -2 389.970 54.6685   3
  -7  -1  -2 113.203 9.97839   1
   7  -1   2 125.249 12.1505   1
   7   1   2 123.162 11.3368   1
   8  -1   2 0.19227 1.72762   1
   8   1   2 1.79187 1.74569   1
   8  -2  -2 3.45140 2.71617   1
  -8  -2   2 0.26877 1.91923   1
  -8   2   2 -1.6468 1.92165   1
  -7  -2   2 176.845 15.8611   1
   7   2  -2 176.715 31.1479   4
  -7   2   2 188.760 14.2837   1
  -6  -2   2 489.905 30.9027   1
   6   2  -2 472.854 48.0152   4
  -6   2   2 525.718 30.4603   1
   6   2  -2 497.091 29.1667   1
   5  -2  -2 34.3974 8.22071   2
  -5  -2   2 33.6423 6.45852   1
  -5   2   2 33.5191 5.91618   1
   5   2  -2 27.9151 11.4072   4
   5   2  -2 49.2180 6.56569   1
   4  -2  -2 1154.81 61.3002   4
   4  -2  -2 1065.15 59.2467   2
  -4   2   2 1055.66 55.8837   1
   4   2  -2 1067.06 70.9703   4
   3  -2  -2 20.8525 5.23030   4
   3  -2  -2 22.1755 5.50801   2
   3   2  -2 23.4931 9.55063   4
   2  -2  -2 135.397 10.4298   4
   2   2  -2 122.150 14.4881   4
   1   2  -2 6080.42 307.096   4
   1   2  -2 6891.52 310.780   3
   0   2  -2 231.080 18.4885   4
   0   2  -2 231.531 21.8852   3
  -1   2  -2 582.301 44.1285   3
  -2   2  -2 822.989 61.7048   3
  -3  -2  -2 17.0405 8.78091   3
  -3   2  -2 1.06384 4.95645   3
  -4  -2  -2 878.568 48.2141   1
  -4  -2  -2 949.227 76.5477   3
  -4   2  -2 932.180 77.5992   3
   4   2   2 915.649 66.3435   4
  -4   2  -2 930.083 48.9253   5
   4   2   2 856.624 48.6194   1
  -5  -2  -2 101.327 9.96865   1
  -5  -2  -2 66.8916 23.0224   3
   5  -2   2 122.918 19.3904   4
   5   2   2 108.390 10.8643   1
  -5   2  -2 79.5407 25.1718   3
  -5   2  -2 92.6835 8.84510   1
   5   2   2 106.053 19.7846   4
  -5   2  -2 96.0287 10.4003   5
  -6  -2  -2 58.8941 7.47227   1
  -6  -2  -2 44.1640 25.9330   3
   6   2   2 66.4879 19.7957   4
   6   2   2 63.3456 8.00791   1
  -6   2  -2 21.7580 20.9564   3
   7  -2   2 81.7607 9.72899   1
  -7  -2  -2 92.6341 8.83954   1
   7   2   2 76.1503 8.55805   1
  -8  -2  -2 41.4441 3.98207   1
   8  -2   2 46.0547 5.60410   1
   8   2   2 42.1199 4.49284   1
   8  -3  -2 489.525 28.5665   1
  -8  -3   2 488.814 28.9074   1
  -7  -3   2 223.611 17.6862   1
  -7   3   2 227.126 15.9280   1
   7   3  -2 307.913 45.9409   4
  -6  -3   2 241.346 18.4705   1
   6   3  -2 234.925 32.7312   4
  -6   3   2 244.207 17.2799   1
   5  -3  -2 1537.83 78.3427   2
  -5  -3   2 1430.37 73.9912   1
   5   3  -2 1521.25 98.7293   4
  -5   3   2 1298.86 73.3604   5
  -4  -3   2 -5.4799 8.45130   3
  -4  -3   2 3.01749 2.71644   1
   4  -3  -2 2.13895 3.41223   2
  -4   3   2 0.99104 2.38176   1
   4   3  -2 12.4133 7.82208   4
   3  -3  -2 3270.46 162.273   2
   3   3  -2 3445.49 176.363   4
   2  -3  -2 4069.99 195.862   2
   2   3  -2 4168.73 205.782   4
   1   3  -2 0.19944 3.57260   3
   1   3  -2 0.87786 2.63421   4
   0   3  -2 3135.27 165.104   3
   0   3  -2 3133.12 155.059   4
  -1   3  -2 250.544 30.8346   3
  -1   3  -2 219.144 18.7595   4
  -2   3  -2 1478.87 99.8512   3
  -3  -3  -2 1280.69 66.6699   1
   3   3   2 1388.01 67.2057   1
  -3   3  -2 1349.67 99.0185   3
  -3   3  -2 1244.05 67.2148   5
  -4  -3  -2 146.286 27.6473   3
  -4  -3  -2 139.052 12.0312   1
   4  -3   2 144.688 18.7288   4
  -4   3  -2 141.535 12.8413   5
   4   3   2 134.109 12.1626   1
  -4   3  -2 106.805 27.8831   3
   4   3   2 145.019 22.3725   4
  -5  -3  -2 701.760 39.2245   1
  -5  -3  -2 626.030 65.8783   3
   5   3   2 702.366 59.7769   4
  -5   3  -2 552.557 65.6750   3
  -5   3  -2 644.338 38.6077   5
   5   3   2 779.941 39.8709   1
  -6  -3  -2 31.5975 8.30933   1
  -6   3  -2 36.9563 6.91352   5
  -6   3  -2 9.87974 24.5005   3
   6   3   2 26.6548 12.9285   4
   6   3   2 32.1697 6.05020   1
  -7  -3  -2 332.436 21.6015   1
   7  -3   2 395.398 24.3741   1
   7   3   2 346.673 21.2337   1
  -8  -4   2 7.21271 2.40443   1
   8  -4  -2 7.21786 2.98187   1
  -6  -4   2 193.048 15.7652   1
   6  -4  -2 133.516 15.5139   2
  -6   4   2 182.693 13.6450   1
   6   4  -2 248.076 32.3159   4
  -5  -4   2 4.01194 3.39486   1
   5  -4  -2 4.41303 4.25471   2
  -5   4   2 1.67698 4.08805   5
  -5   4   2 4.69411 2.75880   1
   5   4  -2 2.42466 5.55097   4
  -4  -4   2 816.616 44.7688   1
   4  -4  -2 804.755 48.0004   2
  -4   4   2 847.989 43.6821   1
   4   4  -2 778.252 63.3043   4
   3  -4  -2 1121.88 64.4542   2
  -3   4   2 1216.82 60.8147   1
   3   4  -2 1302.71 80.3885   4
   2  -4  -2 193.050 16.6294   2
   2   4  -2 244.201 24.1464   4
   1   4  -2 33.1733 9.37722   4
   0   4  -2 599.864 39.6993   4
   0   4   2 588.679 37.9971   4
   0   4  -2 645.539 51.7841   3
   1   4   2 374.707 31.6705   4
  -1   4  -2 419.310 43.9298   3
  -1   4  -2 433.314 29.2748   4
  -2  -4  -2 99.8425 10.7299   1
  -2   4  -2 100.908 10.3358   5
   2   4   2 96.1847 15.9610   4
  -2   4  -2 121.217 24.2469   3
  -3  -4  -2 128.003 11.5380   1
  -3   4  -2 126.490 11.8911   5
  -3   4  -2 125.629 26.7977   3
   3   4   2 135.376 11.4902   1
   3   4   2 150.943 21.2794   4
  -4  -4  -2 28.3706 16.4674   3
  -4  -4  -2 43.0684 7.33973   1
  -4   4  -2 14.9907 11.6129   3
   4   4   2 50.3171 15.8831   4
  -5  -4  -2 13.0513 4.52867   1
  -5  -4  -2 8.64228 14.5661   3
   5   4   2 10.1664 10.1849   4
  -5   4  -2 24.4784 15.5896   3
  -5   4  -2 18.6197 5.00855   5
   5   4   2 14.0999 4.01522   1
  -6  -4  -2 482.492 28.0931   1
  -6   4  -2 435.853 27.1508   5
   6   4   2 419.525 44.9359   4
   6   4   2 428.881 25.9430   1
   7  -4   2 42.9158 8.33954   1
  -7  -4  -2 52.4301 6.13443   1
  -7  -5   2 203.502 14.9553   1
  -6  -5   2 9.59121 3.33814   1
   6   5  -2 -8.6726 6.70695   4
  -6   5   2 12.6929 4.93435   5
  -5  -5   2 154.191 14.3905   1
   5  -5  -2 162.291 16.7288   2
   5   5  -2 185.110 29.0662   4
  -5   5   2 169.997 15.3159   5
   4  -5  -2 116.095 13.3559   2
  -4  -5   2 114.135 11.7423   1
  -4   5   2 101.770 9.38571   1
   4   5  -2 126.913 22.6941   4
   3  -5  -2 1.74429 3.01996   2
  -3  -5   2 14.7101 6.13816   1
   3   5  -2 -5.1848 5.57765   4
  -3   5   2 -2.0497 2.66409   1
   2  -5  -2 284.519 21.6066   2
   2   5  -2 289.190 29.3207   4
  -2   5   2 266.433 18.9297   1
   1   5  -2 221.272 22.8969   4
   0   5  -2 765.215 48.5525   4
   0   5  -2 764.813 65.2514   3
   0   5   2 693.645 44.0978   4
  -1  -5  -2 430.530 26.4334   1
  -1   5  -2 404.453 32.4672   5
   1   5   2 442.329 35.2139   4
  -1   5  -2 492.332 52.1588   3
  -2  -5  -2 121.382 11.5517   1
  -2   5  -2 108.670 11.9414   5
  -2   5  -2 146.990 28.3940   3
   2   5   2 137.199 10.8726   1
   2   5   2 140.684 20.0331   4
  -3  -5  -2 1114.95 60.8510   1
   3   5   2 1189.31 59.1459   1
   3   5   2 1214.43 80.7290   4
  -3   5  -2 1000.50 93.2746   3
  -3   5  -2 1187.56 63.6754   5
  -4  -5  -2 14.4162 3.94481   1
  -4  -5  -2 2.24212 9.91159   3
  -4   5  -2 19.4813 14.5113   3
  -4   5  -2 9.52546 4.24836   5
   4   5   2 11.1249 3.97887   1
   4   5   2 12.1159 7.99648   4
  -5  -5  -2 246.010 45.3945   3
  -5  -5  -2 339.099 22.4482   1
  -5   5  -2 244.329 46.7491   3
   5   5   2 337.797 38.8869   4
  -5   5  -2 312.143 25.0432   5
  -6  -5  -2 -0.4205 1.88756   1
  -6   5  -2 0.91051 2.83949   5
   7  -5   2 0.03806 1.88575   1
  -7  -5  -2 1.06509 1.41470   1
  -7  -6   2 13.4062 3.29140   1
  -6  -6   2 800.651 44.1048   1
  -6   6   2 801.771 43.4795   5
  -5  -6   2 220.270 17.5031   1
   5  -6  -2 217.339 19.8496   2
  -5   6   2 230.746 18.2091   5
   5   6  -2 270.358 35.9047   4
   4  -6  -2 37.9062 8.52449   2
  -4  -6   2 32.2963 6.93286   1
   4   6  -2 52.5054 20.4446   4
   3  -6  -2 4.53020 3.42712   2
  -3  -6   2 17.7161 5.02458   1
   3   6  -2 2.69847 7.55405   4
   2  -6  -2 618.859 40.2423   2
   2   6  -2 593.426 70.5195   4
   1   6  -2 2057.61 100.541   5
   1   6  -2 1942.72 113.525   4
   0  -6  -2 459.318 29.2135   1
   0   6  -2 475.509 36.9026   4
   0   6  -2 456.704 29.7417   5
  -1  -6  -2 1033.63 56.8984   1
  -1   6  -2 1120.61 95.2263   3
   1   6   2 1053.06 67.6638   4
  -1   6  -2 1077.48 58.8059   5
  -2  -6  -2 382.900 31.9371   1
  -2   6  -2 416.706 28.2390   5
  -2   6  -2 467.520 59.5646   3
   2   6   2 426.381 40.0906   4
  -3  -6  -2 39.4238 7.49761   1
  -3   6  -2 22.6776 14.5635   3
  -3   6  -2 50.3939 9.37124   5
   3   6   2 19.0165 10.5352   4
  -4  -6  -2 1229.43 111.689   3
  -4  -6  -2 1499.10 74.6340   1
  -4   6  -2 1278.45 116.978   3
   4   6   2 1518.64 99.6982   4
  -4   6  -2 1445.73 74.9062   5
  -5   6  -2 34.0043 19.9994   3
   5   6   2 -10.032 9.35641   4
  -5   6  -2 1.33895 2.59762   5
  -6  -6  -2 103.714 9.28254   1
  -6   6  -2 98.6887 9.42511   5
  -6  -7   2 -4.5030 2.08181   1
  -6   7   2 0.83051 2.81305   5
  -5  -7   2 36.0878 6.51834   1
  -5   7   2 39.0470 6.91740   5
  -4  -7   2 126.281 12.5287   1
   4  -7  -2 134.122 15.6497   2
  -4   7   2 138.544 13.9581   5
   4   7  -2 137.573 29.4053   4
  -3  -7   2 60.5391 9.83958   1
   3  -7  -2 55.9255 11.3640   2
   3   7  -2 43.9512 16.1507   4
   2  -7  -2 224.663 21.7870   2
   2   7  -2 201.342 29.0806   4
   1  -7  -2 7.03208 4.65672   2
   1   7  -2 15.7259 4.87158   5
   1   7  -2 -1.6755 12.4798   4
   0  -7  -2 28.2959 6.77902   1
   0   7  -2 16.7447 5.13633   5
  -1  -7  -2 238.008 19.0475   1
  -1   7  -2 258.507 20.5872   5
  -2  -7  -2 3.28141 2.81607   1
  -2   7  -2 1.71008 3.11509   5
   2   7   2 31.7104 15.5876   4
  -3  -7  -2 249.360 18.7954   1
  -3   7  -2 233.925 19.5677   5
   3   7   2 191.578 30.5387   4
  -4  -7  -2 3.24737 2.34653   1
  -4  -7  -2 6.25625 22.1061   3
  -4   7  -2 0.57401 3.17631   5
   4   7   2 12.3823 20.0432   4
  -5  -7  -2 66.4638 7.48547   1
  -5   7  -2 58.8206 7.44396   5
   6  -7   2 26.8369 4.53739   1
  -6  -7  -2 26.6995 4.57781   1
  -6   7  -2 29.1127 5.32818   5
  -5  -8   2 0.63569 3.40002   1
  -5   8   2 4.36753 2.48333   5
  -4  -8   2 300.023 20.6075   1
   4  -8  -2 303.435 23.4271   2
  -4   8   2 331.053 23.3103   5
   3  -8  -2 252.572 23.0027   2
   3   8  -2 169.620 43.8154   4
  -3   8   2 257.386 20.8505   5
   2  -8  -2 607.757 42.2100   2
   0   8  -2 45.4791 8.58060   5
   1  -8   2 937.219 54.8473   2
  -1  -8  -2 974.426 53.6400   1
  -1   8  -2 927.406 54.0399   5
  -2  -8  -2 280.434 20.9343   1
  -2   8  -2 283.753 22.2122   5
  -3  -8  -2 117.006 12.1419   1
  -3   8  -2 152.919 14.1183   5
  -4  -8  -2 36.5258 6.34798   1
  -4   8  -2 51.5106 8.36055   5
  -5  -8  -2 38.8484 5.17766   1
  -5   8  -2 36.5649 5.27530   5
  -4   9   2 5.98470 3.05753   5
   3  -9  -2 633.801 41.2885   2
  -3   9   2 690.400 39.3848   5
   2  -9  -2 580.840 39.4776   2
  -2   9   2 588.345 36.5596   5
   0  -9   2 499.272 35.1807   2
   0  -9  -2 599.067 39.6177   2
   0   9   2 545.121 33.5416   5
   0   9  -2 545.403 32.4853   5
  -1  -9  -2 79.9965 17.8016   2
  -1   9  -2 60.8972 8.64556   5
  -2   9  -2 617.926 36.7034   5
  -3  -9  -2 337.354 21.7102   1
  -3   9  -2 317.954 21.8063   5
  -4  -9  -2 2.71943 2.59777   1
  -4   9  -2 2.29522 1.40666   5
   2 -10  -2 12.3917 5.53813   2
  -2  10   2 12.0088 3.45980   5
   1 -10  -2 219.905 18.5445   2
  -1 -10   2 151.381 14.4197   2
  -1  10   2 178.682 14.0329   5
   0 -10  -2 15.1864 5.81549   2
   0  10   2 11.8130 3.51707   5
   0  10  -2 13.0779 3.62630   5
  -1 -10  -2 53.6607 9.78455   2
  -1  10  -2 23.5500 4.23218   5
  -2 -10  -2 17.0416 5.17034   2
  -8   0   3 -3.1542 1.63254   1
   8   0  -3 -3.0673 2.20429   1
   7   0  -3 -0.3627 2.53978   1
  -7   0   3 -2.1251 2.42201   1
   6   0  -3 7.60756 9.75866   4
   5   0  -3 4.55357 5.87890   4
  -4   0   3 4.60863 2.35962   1
   4   0  -3 -3.3281 2.69052   4
   4   0  -3 2.32407 2.09554   2
   3   0  -3 0.62186 3.49018   4
   3   0  -3 1.62087 2.69473   2
   2   0  -3 2.79052 2.29954   4
   1   0  -3 2.38823 2.73672   4
   1   0  -3 3.66895 2.94654   3
   0   0  -3 3.90254 3.99434   4
   0   0  -3 0.02786 3.39507   3
  -1   0  -3 -4.4734 2.99026   3
  -2   0  -3 -1.9522 5.61660   3
  -3   0  -3 -5.7633 4.88890   3
  -4   0  -3 0.80843 5.30034   3
  -4   0  -3 0.26949 1.80303   1
   4   0   3 -4.4776 2.01917   1
  -5   0  -3 -4.6344 8.91535   3
   5   0   3 -0.9202 5.04658   4
   5   0   3 1.97394 2.72166   1
  -5   0  -3 2.59719 2.31817   1
  -6   0  -3 2.88605 2.78745   1
   6   0   3 1.84829 2.75636   1
  -6   0  -3 10.1146 18.8644   3
   6   0   3 9.74350 12.0118   4
   7   0   3 -0.3962 1.54777   1
  -8  -1   3 179.890 13.8723   1
   8  -1  -3 167.155 13.3789   1
  -8   1   3 167.734 12.8654   1
  -7  -1   3 322.512 23.0996   1
  -7   1   3 322.729 22.0096   1
   7   1  -3 269.276 40.9253   4
   6  -1  -3 102.117 28.6535   4
  -6  -1   3 117.030 11.4641   1
   6   1  -3 124.551 10.7756   1
  -6   1   3 124.872 11.8448   1
   6   1  -3 69.0578 18.0951   4
  -5  -1   3 1231.25 65.5335   1
   5  -1  -3 1292.50 70.1229   2
   5  -1  -3 1373.04 80.5585   4
  -5   1   3 1227.26 65.7267   1
   5   1  -3 1227.71 83.3285   4
   4  -1  -3 1306.36 75.7914   4
   4  -1  -3 1279.78 69.1775   2
  -4   1   3 1266.22 65.5485   1
   4   1  -3 1317.81 80.2100   4
   3  -1  -3 169.924 17.1307   4
   3  -1  -3 190.804 14.9707   2
   3   1  -3 186.326 19.7850   4
   2  -1  -3 312.499 22.8253   4
   2   1  -3 307.507 25.0329   4
   1  -1  -3 1579.14 82.6766   4
   1   1  -3 1556.59 82.2369   3
   1   1  -3 1589.15 84.0895   4
   0   1  -3 5196.26 259.190   3
   0   1  -3 5400.22 256.021   4
  -1  -1  -3 1021.70 67.1122   3
  -1   1  -3 879.723 62.9743   3
  -2  -1  -3 5.12927 7.45577   3
  -2   1  -3 11.4473 7.45181   3
  -3  -1  -3 962.787 77.3208   3
  -3   1  -3 934.026 76.5843   3
  -4  -1  -3 260.454 37.6079   3
  -4  -1  -3 261.545 16.8240   1
  -4   1  -3 238.169 17.3957   5
   4   1   3 225.568 17.2941   1
  -4   1  -3 229.818 15.3921   1
  -4   1  -3 235.315 35.7972   3
  -5  -1  -3 650.099 34.8643   1
   5  -1   3 570.663 35.9996   1
   5  -1   3 644.736 53.9756   4
  -5  -1  -3 562.380 65.0904   3
  -5   1  -3 600.449 33.3786   1
  -5   1  -3 582.003 64.6513   3
   5   1   3 620.984 55.3701   4
   5   1   3 602.106 36.1503   1
   6  -1   3 435.464 29.3062   1
   6  -1   3 423.912 44.6333   4
  -6  -1  -3 303.516 48.8312   3
  -6  -1  -3 412.643 29.9088   1
   6   1   3 426.343 28.9431   1
   6   1   3 460.409 45.5205   4
  -6   1  -3 338.321 52.8501   3
   7  -1   3 4.19558 2.85624   1
  -7  -1  -3 2.48567 2.26687   1
   7   1   3 9.05619 3.43671   1
  -8  -2   3 127.744 11.1237   1
   8  -2  -3 119.907 10.7780   1
  -8   2   3 107.927 9.91392   1
  -7  -2   3 17.3472 5.72837   1
   7   2  -3 7.81439 18.8048   4
  -7   2   3 10.1066 3.47132   1
  -6  -2   3 577.249 34.3865   1
   6  -2  -3 523.324 36.7899   2
  -6   2   3 577.342 33.6468   1
   6   2  -3 562.926 53.1515   4
  -5  -2   3 677.193 40.2320   1
   5  -2  -3 750.789 45.4598   2
   5   2  -3 736.697 38.9070   1
   5   2  -3 755.046 59.4319   4
  -5   2   3 731.639 40.9560   1
   4  -2  -3 680.464 42.8086   2
   4  -2  -3 739.235 44.3961   4
   4   2  -3 652.261 51.7258   4
  -4   2   3 669.731 37.6468   1
   3  -2  -3 66.4625 9.97184   4
   3  -2  -3 75.7439 8.40877   2
   3   2  -3 79.0308 13.3967   4
   2  -2  -3 104.610 11.2791   4
   2   2  -3 91.1111 13.5055   4
   1   2  -3 1122.60 65.3987   3
   1   2  -3 1091.59 63.7787   4
   0   2  -3 709.472 44.6940   4
   0   2  -3 692.257 48.4080   3
  -1   2  -3 2965.03 162.365   3
  -2   2  -3 182.412 27.9762   3
  -3  -2  -3 4.74831 5.82286   3
  -3  -2  -3 10.3574 3.13621   1
  -3   2  -3 7.19207 3.05364   5
   3   2   3 6.72514 3.24597   1
  -3   2  -3 3.05171 5.68471   3
  -4  -2  -3 1651.77 125.735   3
  -4  -2  -3 1638.73 84.4435   1
   4   2   3 1695.64 86.0034   1
  -4   2  -3 1772.21 85.7056   5
  -5  -2  -3 1409.81 70.8374   1
   5  -2   3 1568.48 92.1384   4
  -5  -2  -3 1212.98 105.926   3
   5   2   3 1444.82 72.3285   1
  -5   2  -3 1320.80 71.0168   5
  -5   2  -3 1241.93 107.786   3
   5   2   3 1375.08 96.5192   4
  -6  -2  -3 171.238 13.5704   1
   6  -2   3 178.789 15.2850   1
   6   2   3 175.663 14.6685   1
   7  -2   3 62.3058 7.61392   1
  -7  -2  -3 64.1130 6.52444   1
   7   2   3 56.9046 6.93636   1
  -8  -3   3 13.1534 3.53155   1
   8  -3  -3 11.3191 3.42934   1
  -8   3   3 14.4280 2.83077   1
  -7  -3   3 54.5152 7.78263   1
  -7   3   3 49.0439 6.58573   1
   7   3  -3 43.0350 20.1434   4
   6  -3  -3 135.144 15.3411   2
  -6  -3   3 171.665 14.5506   1
   6   3  -3 146.788 32.4061   4
  -6   3   3 158.900 13.3828   1
   5  -3  -3 139.913 15.8557   2
  -5  -3   3 133.644 16.8509   1
   5   3  -3 148.966 23.8674   4
  -5   3   3 155.943 13.8048   5
  -5   3   3 149.956 12.9291   1
  -4  -3   3 0.54538 4.25263   1
   4  -3  -3 13.8718 5.22503   2
  -4   3   3 11.7230 3.40551   1
   4   3  -3 15.0152 8.95023   4
   3  -3  -3 20.7604 5.19469   2
   3   3  -3 26.1734 11.7974   4
  -3   3   3 16.9714 3.99335   1
   2  -3  -3 316.538 22.0114   2
   2   3  -3 342.517 29.5987   4
   1   3  -3 364.413 32.9196   3
   1   3  -3 382.464 30.1785   4
   0   3  -3 6.58583 5.53688   3
   0   3  -3 7.63144 4.31223   4
  -1   3  -3 153.897 24.1728   3
  -1   3  -3 131.231 15.8005   4
  -2   3  -3 397.220 50.0963   3
  -3  -3  -3 568.029 58.1792   3
  -3  -3  -3 495.764 29.9123   1
   3   3   3 516.960 30.6875   1
  -3   3  -3 505.205 56.4061   3
  -3   3  -3 499.494 30.6719   5
  -4  -3  -3 270.343 41.3585   3
  -4  -3  -3 247.668 19.2901   1
   4   3   3 282.178 33.3345   4
   4   3   3 219.093 19.0947   1
  -4   3  -3 266.216 19.0234   5
  -4   3  -3 264.692 41.4080   3
  -5  -3  -3 139.242 12.2892   1
   5   3   3 119.171 12.0001   1
   5   3   3 134.667 23.8126   4
  -5   3  -3 125.564 12.3384   5
  -6  -3  -3 38.2992 29.8316   3
  -6  -3  -3 82.4697 8.64501   1
   6  -3   3 67.9538 9.15266   1
   6   3   3 62.2051 19.4707   4
  -6   3  -3 23.4628 29.0681   3
   6   3   3 68.5731 8.31677   1
  -7  -3  -3 23.9553 4.34538   1
   7  -3   3 12.9529 3.86408   1
   7   3   3 17.0088 3.39746   1
  -8  -4   3 505.092 28.2879   1
  -7  -4   3 34.3462 6.90511   1
  -7   4   3 18.6973 3.86705   1
   6  -4  -3 352.264 27.2418   2
   6   4  -3 365.073 42.3725   4
   5  -4  -3 -3.8810 2.84429   2
  -5  -4   3 -1.3428 3.13895   1
   5   4  -3 -1.2270 4.72060   4
  -5   4   3 4.12912 4.41061   5
  -5   4   3 3.52387 2.86145   1
   4  -4  -3 318.553 25.2975   2
  -4  -4   3 318.560 21.7613   1
  -4   4   3 355.560 21.8090   1
   4   4  -3 305.170 35.9859   4
   3  -4  -3 3548.08 180.666   2
   3   4  -3 3873.89 199.420   4
  -3   4   3 3710.40 175.842   1
   2  -4  -3 1.16420 2.80217   2
   2   4  -3 3.62722 3.76160   4
  -2   4   3 4.98299 2.50137   1
   1  -4  -3 1577.51 83.8563   2
   1   4  -3 1628.66 93.2232   4
   1   4  -3 1696.86 103.557   3
   0   4  -3 440.126 33.8091   4
   0   4  -3 421.610 41.9766   3
  -1  -4  -3 7.96530 2.96594   1
  -1   4  -3 -3.2633 3.20961   5
  -1   4  -3 3.74057 5.92343   3
  -2  -4  -3 2789.01 145.824   1
   2   4   3 3253.26 146.577   1
  -2   4  -3 2884.07 147.391   5
  -2   4  -3 3288.79 189.098   3
  -3  -4  -3 11.2852 4.18266   1
   3   4   3 5.03089 4.87477   4
   3   4   3 21.0754 5.19822   1
  -3   4  -3 0.80489 5.41239   3
  -3   4  -3 8.76635 4.23886   5
  -4  -4  -3 350.379 22.9341   1
  -4  -4  -3 292.880 44.9697   3
   4   4   3 354.786 38.6255   4
  -4   4  -3 280.086 45.0552   3
  -4   4  -3 329.697 23.1415   5
   4   4   3 323.510 22.2841   1
  -5  -4  -3 92.8878 10.0454   1
   5   4   3 98.0010 9.87859   1
  -5   4  -3 85.1967 10.1251   5
  -5   4  -3 53.2460 24.4533   3
  -6  -4  -3 10.1216 3.76276   1
   6  -4   3 11.3657 4.15277   1
  -6   4  -3 10.7218 4.21195   5
   6   4   3 11.8143 3.22541   1
   6   4   3 1.24668 11.0889   4
  -7  -4  -3 480.843 25.2158   1
   7  -4   3 449.612 26.4861   1
   7   4   3 441.546 23.0108   1
  -7  -5   3 477.157 30.0498   1
   6  -5  -3 15.2362 7.89064   2
  -6  -5   3 12.2873 4.83865   1
  -6   5   3 14.7409 5.33142   5
   6   5  -3 -1.4291 12.3021   4
   5  -5  -3 192.576 19.8164   2
  -5  -5   3 230.795 17.5989   1
   5   5  -3 109.676 39.7278   4
  -5   5   3 213.138 17.3779   5
  -5   5   3 232.194 15.3244   1
  -4  -5   3 452.779 30.4479   1
   4  -5  -3 480.252 34.1089   2
   4   5  -3 499.217 50.1860   4
  -4   5   3 492.874 28.5142   1
   3  -5  -3 0.93220 2.86770   2
  -3   5   3 4.19914 2.98261   1
   3   5  -3 5.74573 7.34828   4
   2  -5  -3 1352.76 75.4343   2
  -2   5   3 1417.85 69.8684   1
   2   5  -3 1410.77 88.2413   4
   1  -5  -3 94.0247 11.3961   2
   1   5  -3 84.2975 14.7401   4
  -1   5   3 95.0612 8.88807   1
   0  -5  -3 314.946 20.6322   1
   0   5   3 316.750 20.0018   1
   0   5  -3 281.943 37.4846   3
   0   5  -3 345.594 29.7534   4
   0   5   3 301.538 25.8706   4
   0   5  -3 301.280 21.6608   5
  -1  -5  -3 1664.33 86.6848   1
   1   5   3 1650.34 99.6465   4
  -1   5  -3 2025.17 127.171   3
  -1   5  -3 1633.38 88.0339   5
   1   5   3 1780.79 85.8608   1
  -2  -5  -3 0.36107 2.72930   1
  -2   5  -3 3.01429 3.19862   5
  -2   5  -3 4.22099 9.03574   3
   2   5   3 4.40308 6.13544   4
   2   5   3 2.03337 2.43948   1
  -3  -5  -3 575.546 34.3115   1
   3   5   3 575.506 32.9077   1
  -3   5  -3 495.226 64.5469   3
  -3   5  -3 564.652 34.8760   5
   3   5   3 570.099 49.9124   4
  -4  -5  -3 -0.8892 12.1209   3
  -4  -5  -3 2.10237 2.98623   1
  -4   5  -3 1.36916 3.36086   5
   4   5   3 -1.0246 2.14616   1
  -4   5  -3 8.44530 13.7668   3
   4   5   3 7.54756 5.92066   4
  -5  -5  -3 133.944 12.2992   1
   5   5   3 131.390 10.8128   1
  -5   5  -3 116.152 11.8360   5
   5   5   3 132.556 23.6637   4
  -6  -5  -3 416.261 25.5599   1
   6  -5   3 489.625 31.3108   1
  -6   5  -3 414.547 25.8539   5
  -7  -6   3 15.4465 3.63654   1
  -6  -6   3 -0.9909 1.95140   1
  -6   6   3 -2.4347 3.86798   5
  -5  -6   3 4.32931 3.37259   1
   5  -6  -3 -0.1648 4.36092   2
  -5   6   3 3.22474 3.63976   5
   5   6  -3 -0.9481 11.5572   4
   4  -6  -3 98.4138 13.0160   2
  -4  -6   3 90.9351 10.6344   1
   4   6  -3 77.1547 20.0670   4
   3  -6  -3 14.3881 5.79012   2
   3   6  -3 11.7644 10.0626   4
  -3   6   3 16.7574 4.06218   1
   2  -6  -3 20.5939 6.38877   2
  -2   6   3 22.0496 4.44873   1
   2   6  -3 10.4747 8.36265   4
   1  -6  -3 147.500 15.8361   2
   1   6  -3 127.752 20.7317   4
   1   6  -3 132.362 12.6693   5
  -1   6   3 152.791 11.4274   1
   0  -6  -3 65.4610 9.89103   1
   0   6  -3 65.0586 10.2343   5
   0   6   3 64.9245 7.24762   1
   0   6  -3 39.3205 12.5335   4
   0   6  -3 69.2664 25.0591   3
  -1   6  -3 23.7044 13.7355   3
   1   6   3 23.7597 10.9186   4
   1   6   3 18.0381 4.07239   1
  -2  -6  -3 16.0810 4.65196   1
   2   6   3 28.8492 8.66121   4
  -2   6  -3 13.4252 5.18243   5
  -2   6  -3 5.63377 15.2807   3
   2   6   3 14.8982 3.93751   1
  -3  -6  -3 19.2675 5.17161   1
  -3   6  -3 18.4218 5.97135   5
  -3   6  -3 -4.1876 9.39523   3
   3   6   3 12.0390 3.86078   1
  -4  -6  -3 15.0755 4.94977   1
  -4  -6  -3 9.60791 17.4314   3
   4   6   3 26.4270 12.6356   4
  -4   6  -3 13.2176 4.73840   5
  -4   6  -3 5.94560 13.1030   3
  -5  -6  -3 7.69816 3.13548   1
  -5   6  -3 3.14427 3.11699   5
  -6  -6  -3 3.42229 2.32396   1
   6  -6   3 1.85830 2.60492   1
  -6   6  -3 8.04352 3.14735   5
  -6  -7   3 9.84959 3.34449   1
  -6   7   3 4.15573 3.18196   5
  -5  -7   3 153.676 16.5109   1
   5  -7  -3 177.378 17.5202   2
  -5   7   3 223.960 17.1047   5
   4  -7  -3 412.666 31.5985   2
   4   7  -3 442.047 47.6062   4
   3  -7  -3 65.4922 12.5946   2
   3   7  -3 59.4275 19.8667   4
   2  -7  -3 1059.84 63.9155   2
   2   7  -3 1053.22 76.3936   4
   1  -7  -3 37.6358 10.0548   2
   1   7  -3 33.3894 7.27888   5
   1   7  -3 32.0584 14.8229   4
   0  -7  -3 596.439 36.9341   1
   0   7  -3 600.309 37.2041   5
  -1  -7  -3 1216.06 66.0397   1
  -1   7  -3 1226.02 66.9050   5
  -2  -7  -3 2.62912 3.41209   1
  -2   7  -3 0.79478 3.27841   5
   2   7   3 2.17099 18.7495   4
  -2   7  -3 4.22694 10.9234   3
  -3  -7  -3 631.164 37.3030   1
  -3   7  -3 689.291 39.0487   5
   3   7   3 590.100 54.7235   4
  -3   7  -3 462.194 68.7273   3
  -4  -7  -3 18.7177 4.75017   1
  -4   7  -3 11.8737 3.76017   5
  -5  -7  -3 152.324 11.7413   1
  -5   7  -3 121.854 14.8028   5
  -5   8   3 6.51112 2.94529   5
   4  -8  -3 62.1193 11.2012   2
  -4   8   3 80.7963 9.72860   5
   3  -8  -3 1296.40 74.9830   2
   2  -8  -3 26.3801 8.40768   2
   0  -8  -3 17.1043 7.02611   2
   0   8  -3 25.4799 9.26278   5
  -1  -8  -3 4.85999 3.75914   1
  -1   8  -3 4.84445 3.36645   5
  -2  -8  -3 751.975 45.0709   1
  -2   8  -3 809.284 46.0199   5
  -3  -8  -3 3.20125 3.12091   1
  -3   8  -3 8.83151 3.56352   5
  -4  -8  -3 94.6155 10.2857   1
  -4   8  -3 118.830 10.6113   5
  -4   9   3 1.68534 1.69870   5
   3  -9  -3 26.8318 7.72229   2
  -3   9   3 31.1013 6.76054   5
   2  -9  -3 9.57610 5.22401   2
  -2   9   3 11.3108 4.31150   5
   0  -9  -3 55.5546 11.3277   2
   0   9  -3 63.1645 7.89620   5
  -1  -9  -3 21.8878 7.34418   2
  -1   9  -3 34.3822 6.63824   5
  -2  -9  -3 17.2236 5.38205   2
  -2   9  -3 11.6899 3.61989   5
  -3  -9  -3 12.6166 4.92622   2
  -3   9  -3 9.74922 3.21889   5
   2 -10  -3 1.95942 3.59855   2
  -2 -10   3 1.97693 6.16015   2
  -2  10   3 5.98124 2.62106   5
   1 -10  -3 473.146 37.3525   2
  -1  10   3 488.192 28.7755   5
   0 -10  -3 677.880 38.5289   2
   0  10  -3 537.441 30.0546   5
   0  10   3 587.798 32.3990   5
  -1 -10  -3 139.270 16.1596   2
  -1  10  -3 167.103 11.5105   5
  -8   0   4 447.460 27.0319   1
  -6   0   4 506.401 31.3273   1
   6   0  -4 466.615 46.2409   4
   5   0  -4 938.887 67.2759   4
  -5   0   4 863.889 49.8404   1
   5   0  -4 948.278 54.2402   2
   4   0  -4 26.5962 9.30161   4
  -4   0   4 38.1896 5.89798   1
   4   0  -4 33.3751 7.35846   2
   3   0  -4 496.334 37.6445   4
   3   0  -4 483.495 31.1168   2
   2   0  -4 2694.10 128.635   3
   1   0  -4 4311.35 207.836   3
   1   0  -4 4089.48 207.774   4
   0   0  -4 2340.96 128.885   3
  -1   0  -4 54.6037 15.4697   3
  -2   0  -4 2590.85 160.827   3
   3   0   4 4387.65 218.862   1
  -3   0  -4 4877.56 261.663   3
  -4   0  -4 984.618 51.2722   1
   4   0   4 994.203 54.4095   1
  -4   0  -4 1044.51 91.3701   3
   5   0   4 347.892 23.5549   1
  -5   0  -4 300.348 48.0091   3
   6   0   4 197.808 16.3782   1
   6   0   4 219.715 35.0665   4
   7   0   4 187.806 14.0670   1
  -7  -1   4 240.791 18.4785   1
  -7   1   4 233.728 17.7190   1
   7   1  -4 161.243 47.5528   4
  -6  -1   4 632.380 37.5226   1
  -6   1   4 658.560 37.6111   1
   6   1  -4 578.741 54.0216   4
  -5  -1   4 33.4884 6.89803   1
   5  -1  -4 33.0067 8.14522   2
   5  -1  -4 22.1890 13.0418   4
  -5   1   4 29.8667 6.70012   1
   4  -1  -4 14.0050 6.92836   4
   4  -1  -4 9.53305 4.95696   2
  -4  -1   4 15.1047 3.43594   1
   4   1  -4 11.8266 7.88199   4
  -4   1   4 16.2681 3.84454   1
   4   1  -4 4.49883 3.40507   2
   3  -1  -4 1123.57 64.4271   4
   3  -1  -4 1035.60 57.7599   2
   3   1  -4 1023.15 66.9123   4
   3   1  -4 1088.16 58.2665   2
   2  -1  -4 163.521 17.0920   4
   2  -1  -4 143.806 15.1556   3
   2  -1  -4 138.719 12.7726   2
   2   1  -4 137.885 17.2843   4
   2   1  -4 151.621 12.2234   3
   1  -1  -4 342.509 28.1222   4
   1  -1  -4 375.930 32.1251   3
   1   1  -4 381.587 29.2132   3
   1   1  -4 385.638 30.1684   4
   0  -1  -4 729.394 54.8521   3
   0   1  -4 701.434 51.8911   3
   0   1  -4 775.181 49.3588   4
  -1  -1  -4 10.3521 7.82461   3
  -1   1  -4 8.93419 7.86072   3
  -2  -1  -4 324.620 43.7155   3
  -2   1  -4 297.421 41.3302   3
  -3  -1  -4 946.949 79.9347   3
   3  -1   4 941.628 51.5559   1
  -3   1  -4 981.702 52.8700   5
  -3   1  -4 1052.58 85.4854   3
   3   1   4 936.229 51.8110   1
  -4  -1  -4 460.843 55.0877   3
  -4  -1  -4 457.515 26.0089   1
   4  -1   4 435.167 27.6877   1
   4   1   4 454.168 32.0730   1
  -4   1  -4 373.983 51.5906   3
  -4   1  -4 403.198 26.7476   5
  -5  -1  -4 184.910 36.9125   3
   5  -1   4 208.888 16.9167   1
  -5  -1  -4 219.664 15.0503   1
   5   1   4 223.769 31.2073   4
  -5   1  -4 125.759 35.3687   3
   5   1   4 191.319 16.3459   1
  -6  -1  -4 19.6370 19.6430   3
   6  -1   4 59.4310 8.06798   1
   6   1   4 65.8459 8.32070   1
  -6   1  -4 18.0522 31.7147   3
   6   1   4 85.0886 22.7779   4
   7  -1   4 307.574 19.6814   1
   7   1   4 276.861 18.8056   1
   8  -2  -4 90.6432 7.99955   1
  -8   2   4 108.163 9.12230   1
  -7  -2   4 96.8278 10.8143   1
   7   2  -4 98.7992 26.8012   4
  -7   2   4 96.3012 10.0717   1
  -6  -2   4 10.8563 4.18519   1
   6  -2  -4 11.1140 5.48961   2
   6   2  -4 21.2383 12.9392   4
  -6   2   4 19.1219 4.90712   1
  -5  -2   4 527.064 32.7310   1
   5  -2  -4 579.818 37.9405   2
   5   2  -4 545.251 50.8786   4
  -5   2   4 549.635 33.2478   1
   4  -2  -4 10.7217 4.99727   2
  -4  -2   4 18.1909 4.75118   1
   4  -2  -4 13.9420 8.86081   4
   4   2  -4 21.6465 9.52180   4
  -4   2   4 16.9632 4.39843   1
   3  -2  -4 388.673 27.2498   2
   3  -2  -4 434.412 31.5128   4
  -3   2   4 407.458 24.7625   1
   3   2  -4 416.634 36.4553   4
   2  -2  -4 3.79639 2.13251   2
   2   2  -4 2.83445 2.99470   4
   2   2  -4 8.03635 4.44361   3
   1   2  -4 48.8720 10.2116   3
   1   2  -4 59.0368 13.3833   4
   0  -2  -4 2106.01 106.089   2
   0   2  -4 2133.32 123.238   3
   0   2  -4 2273.99 117.935   4
  -1   2  -4 111.161 20.7061   3
  -2  -2  -4 77.2688 8.19724   1
  -2  -2  -4 77.0904 23.0407   3
  -2   2  -4 91.0162 25.3141   3
   2   2   4 77.6327 7.82921   1
  -2   2  -4 70.6543 7.86935   5
  -3  -2  -4 89.1089 9.02459   1
  -3  -2  -4 90.5462 26.6411   3
   3   2   4 102.286 9.81113   1
  -3   2  -4 124.675 26.4878   3
  -3   2  -4 93.7928 10.0889   5
   4  -2   4 11.1303 3.97031   1
  -4  -2  -4 6.38158 2.72855   1
  -4  -2  -4 5.04210 9.14116   3
  -4   2  -4 0.34188 7.25460   3
   4   2   4 9.83931 4.14963   1
  -5  -2  -4 93.1041 28.6552   3
   5  -2   4 166.103 27.5317   4
   5  -2   4 131.389 12.6886   1
  -5  -2  -4 148.776 12.3519   1
   5   2   4 153.563 13.3790   1
  -5   2  -4 106.014 33.4918   3
  -6  -2  -4 27.1149 4.78251   1
  -6  -2  -4 47.5717 33.9501   3
   6  -2   4 31.1363 6.57438   1
  -6   2  -4 24.3970 24.4337   3
   6   2   4 35.0137 6.34045   1
   6   2   4 43.9018 19.1410   4
   7  -2   4 68.5881 7.51978   1
   7   2   4 79.8430 7.68549   1
  -8  -3   4 11.2480 3.03801   1
   8  -3  -4 14.0397 3.44926   1
  -8   3   4 9.25642 2.69302   1
  -7  -3   4 300.416 20.6259   1
  -7   3   4 267.861 18.8753   1
  -6  -3   4 183.544 15.3711   1
   6  -3  -4 152.977 17.6303   2
   6   3  -4 158.949 28.0429   4
  -6   3   4 187.038 14.9185   1
   5  -3  -4 116.966 14.3647   2
  -5  -3   4 83.0779 10.0842   1
  -5   3   4 102.859 10.7918   1
   5   3  -4 126.738 23.2560   4
   4  -3  -4 991.805 56.0687   2
  -4   3   4 902.365 50.1057   1
   4   3  -4 960.832 71.1861   4
   3  -3  -4 29.7655 7.06435   2
   3   3  -4 23.4030 9.67875   4
  -3   3   4 29.5727 5.67989   1
   2  -3  -4 1327.06 71.4248   2
   2   3  -4 1395.49 83.7817   4
   1  -3  -4 1845.04 101.556   2
   1   3  -4 2194.97 119.796   3
   1   3  -4 2105.93 113.752   4
   0  -3  -4 7.31141 3.22082   2
   0   3  -4 3.24662 4.88912   3
   0   3  -4 4.85296 4.50619   4
  -1   3  -4 1625.14 109.276   3
  -2  -3  -4 360.198 22.7250   1
   2   3   4 371.035 23.6593   1
  -2   3  -4 462.904 54.5555   3
  -2   3  -4 351.380 24.1126   5
  -3  -3  -4 475.311 29.6820   1
  -3  -3  -4 507.006 59.7211   3
  -3   3  -4 611.060 67.9546   3
   3   3   4 481.883 30.7386   1
  -3   3  -4 528.490 31.2295   5
  -4  -3  -4 1093.74 97.5895   3
  -4  -3  -4 1196.25 60.8841   1
   4   3   4 1212.18 62.2389   1
  -4   3  -4 1044.79 98.9420   3
  -4   3  -4 1141.34 61.7471   5
  -5  -3  -4 46.2873 25.8265   3
  -5  -3  -4 107.898 10.5042   1
   5   3   4 102.302 11.2529   1
   5   3   4 121.596 28.4768   4
  -5   3  -4 98.3530 10.7237   5
   6  -3   4 162.721 13.5999   1
  -6  -3  -4 159.143 12.0134   1
   6   3   4 145.646 12.3739   1
  -7  -3  -4 63.4800 5.48699   1
   7  -3   4 78.3743 7.37091   1
   7   3   4 68.1118 6.17693   1
  -7  -4   4 72.6363 8.38370   1
  -7   4   4 47.3581 6.46275   1
  -6  -4   4 135.646 12.7124   1
   6  -4  -4 140.074 15.7641   2
  -6   4   4 141.221 11.6953   1
   6   4  -4 84.7985 20.1265   4
   5  -4  -4 32.2001 8.86258   2
  -5  -4   4 25.9295 6.71933   1
  -5   4   4 50.0037 8.26108   1
   5   4  -4 29.2438 13.2544   4
  -4  -4   4 -4.6764 4.26229   1
   4  -4  -4 -1.4243 2.17953   2
  -4   4   4 4.52269 2.46426   1
   4   4  -4 -6.5536 5.61815   4
   3  -4  -4 82.9718 10.8625   2
  -3   4   4 79.9624 8.34292   1
   3   4  -4 98.9053 22.3682   4
   2  -4  -4 6.83699 3.51653   2
  -2   4   4 10.0949 3.72866   1
   2   4  -4 12.8569 7.31758   4
   1  -4  -4 858.095 53.8411   2
  -1   4   4 808.750 45.3566   1
   1   4  -4 873.854 59.5747   4
   1   4  -4 894.071 67.2536   3
   0  -4  -4 218.428 17.3945   1
   0   4   4 239.378 16.5000   1
   0   4  -4 256.443 26.2785   4
   0   4  -4 246.481 17.6902   5
   0   4  -4 241.015 32.6424   3
  -1  -4  -4 49.3827 6.26265   1
  -1   4  -4 50.9628 18.2739   3
   1   4   4 42.6802 6.23607   1
  -1   4  -4 50.5433 8.84772   5
  -2  -4  -4 240.532 16.8013   1
   2   4   4 220.185 16.8063   1
  -2   4  -4 233.187 17.7519   5
  -3  -4  -4 492.297 61.0410   3
  -3  -4  -4 548.811 32.9759   1
  -3   4  -4 561.600 34.4086   5
   3   4   4 581.019 33.4529   1
  -3   4  -4 548.269 67.2350   3
  -4  -4  -4 30.7137 6.71562   1
  -4  -4  -4 22.0810 17.6228   3
  -4   4  -4 23.0333 12.2857   3
   4   4   4 9.80011 7.54544   4
   4   4   4 16.7388 4.88626   1
  -4   4  -4 5.16721 3.93591   5
  -5  -4  -4 6.40844 13.0461   3
  -5  -4  -4 23.5298 5.11884   1
   5  -4   4 15.6003 4.96563   1
   5   4   4 3.68776 8.97631   4
  -5   4  -4 25.5625 6.02800   5
  -5   4  -4 18.1782 15.0549   3
   5   4   4 11.2980 3.82944   1
   6  -4   4 9.34866 3.05633   1
  -6  -4  -4 10.7362 3.25163   1
   6   4   4 3.68061 2.26774   1
  -7  -5   4 81.0218 8.13638   1
  -6  -5   4 166.599 13.6571   1
   6  -5  -4 154.172 15.7901   2
  -6   5   4 150.387 11.5225   1
  -6   5   4 146.169 12.5565   5
  -5  -5   4 7.34543 4.17570   1
   5  -5  -4 8.78791 5.40889   2
   5   5  -4 15.2530 6.61810   4
  -5   5   4 9.57574 3.53705   1
   4  -5  -4 1359.24 78.7485   2
   4   5  -4 1339.35 98.0459   4
  -4   5   4 1435.90 71.3548   1
   3  -5  -4 -1.2162 3.27062   2
   3   5  -4 0.88883 6.26016   4
   2  -5  -4 229.245 20.5280   2
  -2   5   4 223.107 16.3592   1
   1  -5  -4 1005.89 57.2223   2
  -1   5   4 1035.23 51.8394   1
   1   5  -4 967.228 67.1565   4
   1   5  -4 893.079 77.6623   3
   1   5  -4 924.992 56.7525   5
   0  -5  -4 169.443 14.5205   1
   0   5   4 192.296 14.2620   1
   0   5  -4 184.884 23.2862   4
   0   5  -4 181.607 29.3738   3
   0   5  -4 173.112 14.6714   5
   0   5   4 169.384 21.1113   4
  -1  -5  -4 986.755 55.4664   1
  -1   5  -4 1152.71 93.7721   3
   1   5   4 1115.96 55.6657   1
  -1   5  -4 990.769 56.7860   5
  -2  -5  -4 9.38979 3.36124   1
  -2   5  -4 16.5855 12.2610   3
   2   5   4 11.4333 3.63855   1
   2   5   4 -1.2959 4.86607   4
  -2   5  -4 7.70988 4.05700   5
  -3  -5  -4 183.863 15.5043   1
  -3  -5  -4 156.295 39.5876   3
   3   5   4 195.496 27.8037   4
  -3   5  -4 195.158 40.8659   3
   3   5   4 194.385 15.3402   1
  -3   5  -4 200.912 16.9518   5
  -4  -5  -4 205.651 41.1529   3
  -4  -5  -4 244.684 18.1647   1
  -4   5  -4 200.219 39.0833   3
   4   5   4 223.334 16.7904   1
  -4   5  -4 238.619 18.7809   5
   4   5   4 236.863 31.9753   4
  -5  -5  -4 47.8026 6.77353   1
   5  -5   4 51.8491 7.76692   1
   5   5   4 52.0527 6.36044   1
   5   5   4 32.6799 14.9146   4
  -5   5  -4 37.3303 6.77893   5
  -5   5  -4 58.3359 27.2074   3
  -6  -5  -4 406.801 23.2494   1
   6  -5   4 437.115 24.2438   1
   6   5   4 377.878 21.1738   1
  -7  -6   4 11.1646 3.39832   1
  -6  -6   4 103.760 9.44683   1
   6  -6  -4 92.5635 12.7697   2
  -6   6   4 124.845 10.5088   5
   5  -6  -4 1649.73 88.5274   2
  -5  -6   4 1593.02 80.9792   1
  -5   6   4 1614.37 82.2416   5
   5   6  -4 1454.15 109.433   4
   4  -6  -4 301.136 26.1132   2
  -4   6   4 277.600 18.7844   1
   4   6  -4 299.175 38.8835   4
   3  -6  -4 983.178 58.3131   2
  -3   6   4 876.256 48.8992   1
   3   6  -4 959.535 75.3091   4
   2  -6  -4 23.4494 7.49057   2
  -2   6   4 20.0609 4.40543   1
   2   6  -4 36.8690 13.5001   4
   1  -6  -4 -2.5856 3.20398   2
  -1   6   4 3.53292 3.24484   1
   1   6  -4 2.85470 7.22293   4
   1   6  -4 -5.7268 3.66390   5
   0  -6  -4 2370.47 117.825   2
   0  -6  -4 2171.49 111.945   1
   0   6   4 2154.37 109.693   1
   0   6  -4 2225.63 112.241   5
   0   6  -4 2307.94 154.342   3
  -1  -6  -4 106.045 11.6158   1
  -1   6  -4 114.853 33.5891   3
  -1   6  -4 117.261 12.4703   5
   1   6   4 88.7789 20.5602   4
   1   6   4 118.264 10.5116   1
  -2  -6  -4 948.823 51.4625   1
  -2   6  -4 794.206 86.7699   3
   2   6   4 838.434 66.7642   4
  -2   6  -4 950.713 52.8529   5
   2   6   4 988.740 49.5945   1
  -3  -6  -4 6.26811 3.02740   1
  -3  -6  -4 -3.1600 11.7542   3
   3   6   4 -7.7463 8.74327   4
  -3   6  -4 1.83599 3.23934   5
   3   6   4 0.24123 2.52439   1
  -4  -6  -4 2.29202 2.93835   1
  -4  -6  -4 0.92929 14.9233   3
  -4   6  -4 3.32824 2.73860   5
  -4   6  -4 16.3097 16.1128   3
   4   6   4 4.11207 2.47790   1
   4   6   4 10.3390 16.8882   4
   5  -6   4 1145.75 58.2921   1
  -5  -6  -4 1170.42 58.9473   1
  -5   6  -4 1114.09 59.7199   5
   6  -6   4 -1.4991 3.20221   1
  -6  -6  -4 0.57547 1.46184   1
  -6  -7   4 20.6354 5.22518   1
  -6   7   4 27.7499 4.42272   5
   5  -7  -4 23.6977 7.22078   2
  -5   7   4 42.9803 7.94543   5
   4  -7  -4 395.119 30.9964   2
   4   7  -4 343.908 62.0905   4
   3  -7  -4 8.27217 5.90160   2
   3   7  -4 11.9301 12.0544   4
   2  -7  -4 34.2884 9.33439   2
   2   7  -4 57.0491 22.6093   4
   1  -7  -4 62.5192 13.1364   2
   1   7  -4 38.1820 19.1245   4
   0  -7  -4 164.455 18.2988   2
   0   7  -4 156.835 14.8432   5
  -1  -7  -4 434.428 29.7998   1
  -1   7  -4 479.378 30.8958   5
  -2  -7  -4 138.774 19.0162   1
  -2   7  -4 113.393 38.5397   3
  -2   7  -4 146.508 20.9489   5
  -3  -7  -4 24.6227 16.6514   3
  -3  -7  -4 62.5956 8.54462   1
  -3   7  -4 68.2990 9.30409   5
   3   7   4 52.6013 32.4994   4
  -3   7  -4 17.8423 20.3130   3
  -4  -7  -4 161.315 14.6170   2
  -4  -7  -4 156.145 13.0281   1
  -4   7  -4 136.693 12.9061   5
  -5  -7  -4 75.0674 7.15926   1
  -5   7  -4 56.6112 6.59856   5
   5  -8  -4 48.4332 9.76867   2
  -5   8   4 45.5812 6.11670   5
   4  -8  -4 15.4499 6.01181   2
  -4   8   4 17.7001 5.06093   5
   3  -8  -4 310.483 26.7368   2
   2  -8  -4 461.685 34.9737   2
   0  -8  -4 172.652 19.3721   2
   0   8  -4 146.542 13.7165   5
  -1  -8  -4 83.9210 12.7360   2
  -1   8  -4 80.3622 10.0706   5
  -2  -8  -4 87.5731 13.5121   2
  -2  -8  -4 79.2471 9.65542   1
  -2   8  -4 82.6542 10.0556   5
  -3  -8  -4 231.293 19.4678   2
  -3  -8  -4 209.450 16.9390   1
  -3   8  -4 252.947 18.1540   5
  -4  -8  -4 18.5345 5.19735   2
  -4  -8  -4 23.0419 4.60925   1
  -4   8  -4 13.5398 3.25220   5
   4  -9  -4 198.741 18.3799   2
  -4   9   4 221.609 15.2829   5
   3  -9  -4 26.6397 7.12358   2
   2  -9  -4 394.309 29.7031   2
   1  -9  -4 541.559 37.5806   2
   0  -9  -4 6.04649 4.73274   2
   0   9  -4 5.01214 3.12593   5
  -1  -9  -4 254.948 22.1211   2
  -1   9  -4 257.825 21.8760   5
  -2  -9  -4 116.691 13.4746   2
  -2   9  -4 129.152 11.2634   5
  -3  -9  -4 65.7184 8.56991   2
  -3   9  -4 85.3420 7.83203   5
   1 -10  -4 -1.7924 3.00854   2
  -1  10   4 2.46904 2.45706   5
   0 -10  -4 64.3894 8.96815   2
   0  10   4 47.9711 6.21472   5
  -8   0   5 -2.7457 1.46537   1
  -7   0   5 -0.9330 2.56873   1
   6   0  -5 6.23056 13.4356   4
  -6   0   5 -1.0953 2.08835   1
   5   0  -5 12.3214 8.44218   4
  -5   0   5 6.43242 3.08891   1
  -4   0   5 6.09958 2.93040   1
   4   0  -5 -5.9553 5.02026   4
   4   0  -5 -4.9909 2.59177   2
   3   0  -5 -4.3087 2.88813   4
   3   0  -5 1.04185 2.75289   2
   2   0  -5 2.07577 2.87883   2
   2   0  -5 -1.6336 3.04127   4
   2   0  -5 -1.1466 3.76408   3
   1   0  -5 10.3023 6.65478   4
   1   0  -5 -0.0802 3.90665   3
   1   0  -5 -0.5688 3.36863   2
   0   0  -5 -1.8402 3.15768   3
  -1   0  -5 -2.7506 4.32706   3
  -2   0  -5 -0.1974 5.98949   3
   3   0   5 1.86039 2.88167   1
  -3   0  -5 0.31835 6.44439   3
   4   0   5 -2.9366 2.37024   1
  -4   0  -5 -2.9520 6.67116   3
  -5   0  -5 6.86486 9.15637   3
   6   0   5 2.21038 1.83248   1
   7   0   5 0.13307 1.25317   1
  -8  -1   5 302.123 20.7097   1
  -8   1   5 280.775 20.3594   1
  -7  -1   5 111.782 11.8199   1
  -7   1   5 135.134 12.3895   1
  -6  -1   5 250.825 19.4364   1
   6   1  -5 268.187 36.3800   4
  -6   1   5 230.169 18.6026   1
   5  -1  -5 423.376 31.6679   2
  -5  -1   5 426.840 27.6877   1
   5  -1  -5 388.004 44.8209   4
  -5   1   5 427.814 27.5139   1
   5   1  -5 404.393 42.4614   4
   4  -1  -5 495.436 42.5346   4
  -4  -1   5 553.462 32.0055   1
   4  -1  -5 540.645 36.0586   2
   4   1  -5 530.155 46.8086   4
   4   1  -5 549.562 35.2948   2
  -4   1   5 500.264 31.0224   1
   3  -1  -5 691.135 47.3753   2
   3  -1  -5 748.566 51.3381   4
   3   1  -5 716.565 42.8114   2
   3   1  -5 657.520 52.0935   4
  -3   1   5 738.595 39.5300   1
   2  -1  -5 167.587 15.4799   2
   2  -1  -5 218.487 22.3614   4
   2  -1  -5 192.696 19.3732   3
   2   1  -5 199.133 22.9487   4
   2   1  -5 223.742 18.8374   3
   2   1  -5 214.594 16.8751   2
   1  -1  -5 1747.49 104.021   3
   1  -1  -5 1728.90 88.3590   2
   1   1  -5 1848.78 101.633   4
   1   1  -5 1687.49 88.3120   2
   1   1  -5 1782.56 100.090   3
   0  -1  -5 447.707 45.2826   3
   0   1  -5 487.633 44.0954   3
   0   1  -5 546.737 41.5881   4
  -1  -1  -5 708.676 61.4046   3
  -1   1  -5 580.480 55.7953   3
  -2  -1  -5 2424.48 127.905   1
  -2  -1  -5 2916.94 165.322   3
  -2   1  -5 2898.46 167.529   3
   2   1   5 2271.91 123.603   1
  -2   1  -5 2399.54 124.920   5
  -3  -1  -5 10.6786 11.1165   3
   3  -1   5 5.33732 2.98846   1
  -3  -1  -5 5.40651 2.51478   1
  -3   1  -5 0.05244 2.80654   5
   3   1   5 9.00685 3.42679   1
  -4  -1  -5 305.583 18.9305   1
   4  -1   5 287.416 21.1615   1
  -4  -1  -5 268.499 43.4708   3
   4   1   5 299.881 21.6512   1
  -4   1  -5 339.576 48.8943   3
   5  -1   5 313.509 21.6037   1
  -5  -1  -5 225.214 45.5139   3
  -5   1  -5 257.169 47.2533   3
   5   1   5 305.160 21.4002   1
   6  -1   5 32.1723 5.89724   1
   6   1   5 17.4307 4.96545   1
   7  -1   5 422.208 24.8835   1
   7   1   5 451.206 25.0012   1
  -8  -2   5 120.837 10.7086   1
  -8   2   5 131.158 10.1856   1
  -7  -2   5 200.261 16.4794   1
  -7   2   5 190.175 15.2359   1
  -6  -2   5 17.1271 4.79594   1
   6  -2  -5 15.3126 6.01025   2
  -6   2   5 17.0033 5.46580   1
   6   2  -5 24.0717 14.3832   4
  -5  -2   5 174.140 15.2023   1
   5  -2  -5 170.516 18.1045   2
  -5   2   5 171.818 15.1148   1
   5   2  -5 182.268 28.4088   4
   4  -2  -5 987.055 64.7127   4
  -4  -2   5 966.909 54.2427   1
   4  -2  -5 1069.18 60.1722   2
   4   2  -5 1066.54 75.9254   4
  -4   2   5 1007.92 54.1814   1
   3  -2  -5 1095.86 61.9626   2
   3  -2  -5 1212.92 70.7014   4
  -3   2   5 1079.42 57.9023   1
   3   2  -5 1068.30 74.6868   4
   2  -2  -5 1815.13 102.732   2
   2  -2  -5 2195.86 118.080   3
   2   2  -5 2047.76 117.223   4
   2   2  -5 2149.84 110.604   3
   1  -2  -5 103.996 11.0251   2
   1   2  -5 108.560 17.1558   4
   1   2  -5 123.734 18.6584   3
   0  -2  -5 310.051 22.4292   2
   0  -2  -5 353.340 40.2044   3
   0   2  -5 364.460 32.6971   4
   0   2  -5 362.353 36.9206   3
  -1  -2  -5 3486.69 158.064   1
  -1  -2  -5 3300.21 194.961   3
  -1   2  -5 2907.37 156.778   5
  -1   2  -5 3639.98 194.441   3
   1   2   5 3035.48 156.061   1
  -2  -2  -5 171.000 32.6612   3
  -2  -2  -5 121.192 9.96431   1
  -2   2  -5 95.8203 26.7217   3
  -2   2  -5 116.638 11.1485   5
   2   2   5 112.597 10.8560   1
   3  -2   5 552.620 34.6263   1
  -3  -2  -5 612.198 67.3814   3
  -3  -2  -5 608.248 33.7300   1
  -3   2  -5 662.479 70.6240   3
  -3   2  -5 603.831 36.0061   5
   3   2   5 602.811 35.9836   1
  -4  -2  -5 81.7303 27.4384   3
   4  -2   5 77.0468 9.09181   1
  -4  -2  -5 63.9698 7.62845   1
   4   2   5 75.3276 9.07100   1
  -4   2  -5 33.9559 19.2175   3
  -4   2  -5 58.5126 8.51601   5
   5  -2   5 0.69545 2.41252   1
  -5  -2  -5 -2.6943 10.2848   3
   5   2   5 15.8642 10.3491   4
   5   2   5 0.05068 1.87962   1
  -5   2  -5 20.3206 10.9684   3
   6  -2   5 543.911 31.9957   1
   6   2   5 539.089 31.5135   1
   7  -2   5 57.1530 5.84301   1
   7   2   5 45.2383 5.10504   1
  -8  -3   5 18.0067 3.97739   1
  -8   3   5 15.1536 3.04162   1
  -7  -3   5 22.2562 4.84517   1
  -7   3   5 18.0776 4.45404   1
  -6  -3   5 175.071 15.5768   1
   6  -3  -5 184.327 19.3424   2
  -6   3   5 201.826 17.7581   1
   6   3  -5 164.841 34.2438   4
  -5  -3   5 5.45659 3.09453   1
   5  -3  -5 3.28368 4.07245   2
  -5   3   5 1.41137 2.58747   1
   5   3  -5 2.70614 6.43209   4
  -4  -3   5 180.958 15.3914   1
   4  -3  -5 215.897 19.9599   2
  -4   3   5 199.235 15.8640   1
   4   3  -5 184.274 28.1240   4
   3  -3  -5 39.7779 8.52604   2
  -3   3   5 50.4478 7.82942   1
   3   3  -5 32.8334 14.8833   4
   2  -3  -5 1049.62 60.7497   2
   2   3  -5 1122.63 74.7032   4
   2   3  -5 1136.15 72.4689   3
  -2   3   5 1110.64 57.7659   1
   1  -3  -5 534.442 33.7364   2
   1   3  -5 598.080 46.1003   4
   1   3  -5 520.190 46.7565   3
  -1   3   5 524.417 31.2529   1
   0  -3  -5 123.226 11.8715   1
   0  -3  -5 156.521 14.3380   2
   0   3  -5 162.116 21.5135   4
   0   3   5 136.384 16.0376   1
   0   3  -5 194.322 27.0945   3
   0   3  -5 154.356 13.1117   5
  -1  -3  -5 -3.8979 2.94905   2
  -1  -3  -5 2.26437 2.27072   1
  -1   3  -5 4.60432 7.10293   3
   1   3   5 -0.2615 2.04038   1
  -1   3  -5 7.11847 3.28444   5
  -2  -3  -5 79.9798 25.4567   3
  -2  -3  -5 70.3329 8.27248   1
  -2  -3  -5 82.0774 10.4275   2
  -2   3  -5 89.3044 10.2536   5
  -2   3  -5 64.3571 23.5597   3
   2   3   5 105.422 10.0452   1
  -3  -3  -5 258.632 44.6116   3
   3  -3   5 217.046 18.8294   1
  -3  -3  -5 273.158 18.6751   1
   3   3   5 268.892 19.8792   1
  -3   3  -5 331.211 50.4554   3
  -3   3  -5 287.361 20.7145   5
   4  -3   5 145.299 13.5314   1
  -4  -3  -5 134.864 35.6176   3
  -4  -3  -5 153.748 12.6525   1
  -4   3  -5 151.203 14.3885   5
  -4   3  -5 131.821 38.0496   3
   4   3   5 157.388 14.0746   1
  -5  -3  -5 118.760 10.4594   1
   5  -3   5 115.229 11.6530   1
  -5   3  -5 89.0452 28.5588   3
   5   3   5 119.556 21.4952   4
   5   3   5 134.334 12.1801   1
  -6  -3  -5 18.6564 3.42915   1
   6  -3   5 6.76674 3.70298   1
   6   3   5 11.8149 3.34079   1
  -7  -4   5 473.899 29.2805   1
  -7   4   5 503.398 29.3372   1
  -6  -4   5 146.142 13.9355   1
   6  -4  -5 164.575 18.2058   2
  -6   4   5 182.790 14.2991   1
   6   4  -5 184.534 28.1702   4
  -5  -4   5 790.402 43.7036   1
   5  -4  -5 739.454 50.2417   2
  -5   4   5 835.001 44.0900   1
   5   4  -5 542.017 83.3613   4
   4  -4  -5 -2.2066 3.31545   2
   4   4  -5 1.18813 8.19433   4
  -4   4   5 -1.1367 2.32656   1
   3  -4  -5 150.152 16.4909   2
  -3   4   5 140.262 12.9786   1
   3   4  -5 164.612 24.9097   4
   2  -4  -5 1844.90 97.7638   2
  -2   4   5 1855.70 93.1177   1
   2   4  -5 1878.06 114.762   4
   1  -4  -5 520.735 34.3728   2
   1   4  -5 526.606 50.0130   3
   1   4  -5 510.191 31.1037   5
  -1   4   5 513.774 30.8649   1
   1   4  -5 538.546 46.1253   4
   0  -4  -5 1704.33 85.1948   2
   0  -4  -5 1459.67 79.9322   1
   0   4  -5 1653.72 98.2874   4
   0   4  -5 1716.88 113.637   3
   0   4  -5 1568.15 81.3081   5
   0   4   5 1520.14 80.2652   1
  -1  -4  -5 5.87247 3.11152   2
  -1  -4  -5 3.49683 2.42768   1
   1   4   5 6.38542 2.53632   1
  -1   4  -5 3.55749 2.80011   5
  -1   4  -5 9.28645 13.4170   3
  -2  -4  -5 46.5077 9.58131   2
  -2  -4  -5 38.7579 20.9749   3
  -2  -4  -5 42.6491 7.22038   1
   2   4   5 40.5602 7.14224   1
  -2   4  -5 51.2896 22.6679   3
  -2   4  -5 50.2351 8.72165   5
  -3  -4  -5 1583.04 79.5233   1
  -3  -4  -5 1469.55 123.963   3
  -3   4  -5 1638.09 132.942   3
  -3   4  -5 1562.74 81.3847   5
   3   4   5 1503.13 79.9367   1
   4  -4   5 256.725 19.3978   1
  -4  -4  -5 257.221 18.3185   1
  -4  -4  -5 203.466 37.9966   3
   4   4   5 229.079 32.6418   4
   4   4   5 259.860 18.9759   1
  -4   4  -5 184.347 39.2121   3
  -4   4  -5 258.219 19.7549   5
   5  -4   5 538.916 31.2270   1
  -5  -4  -5 547.651 30.3758   1
  -5   4  -5 568.361 32.3206   5
  -5   4  -5 432.629 64.8577   3
   5   4   5 529.882 51.3670   4
   5   4   5 487.849 30.5639   1
  -6  -4  -5 60.1510 5.64637   1
   6  -4   5 60.4573 6.71287   1
   6   4   5 60.5398 6.07695   1
  -7  -5   5 7.14180 2.71127   1
  -6  -5   5 619.673 36.0588   1
   6  -5  -5 656.805 41.2931   2
  -6   5   5 614.331 34.4033   1
   5  -5  -5 21.8667 8.32344   2
  -5  -5   5 28.2677 5.63873   1
   5   5  -5 36.5813 13.1695   4
  -5   5   5 19.7371 5.33473   1
   4  -5  -5 224.110 22.1343   2
  -4   5   5 216.928 16.9388   1
   4   5  -5 208.613 32.8425   4
   3  -5  -5 349.005 29.6395   2
  -3   5   5 378.131 24.6910   1
   3   5  -5 414.812 44.3095   4
   2  -5  -5 1.87399 3.18129   2
  -2   5   5 4.93311 2.81327   1
   1  -5  -5 1176.81 66.7328   2
   1   5  -5 1139.68 80.4329   4
   1   5  -5 1103.96 61.0658   5
  -1   5   5 1224.12 63.8425   1
   0  -5  -5 124.774 13.9737   1
   0  -5  -5 161.371 16.2142   2
   0   5  -5 174.192 24.8546   4
   0   5  -5 165.247 13.9885   5
   0   5  -5 144.077 28.0488   3
  -1  -5  -5 559.490 35.6693   1
  -1  -5  -5 666.505 40.6314   2
   1   5   5 619.972 35.8303   1
  -1   5  -5 601.626 37.1297   5
  -1   5  -5 652.857 70.2918   3
  -2  -5  -5 638.162 36.3484   1
  -2  -5  -5 616.177 39.6183   2
  -2   5  -5 606.160 37.3234   5
   2   5   5 617.349 54.4778   4
  -2   5  -5 489.028 66.2802   3
   2   5   5 624.336 35.9107   1
  -3  -5  -5 267.552 51.0673   3
  -3  -5  -5 286.018 19.5471   1
   3   5   5 295.947 48.7976   4
   3   5   5 215.426 17.7349   1
  -3   5  -5 199.773 43.5268   3
  -3   5  -5 256.839 20.2086   5
  -4  -5  -5 233.465 42.9447   3
  -4  -5  -5 339.643 21.6566   1
  -4   5  -5 329.441 22.8535   5
   4   5   5 353.375 21.5071   1
  -4   5  -5 216.391 43.7441   3
   4   5   5 289.203 36.2830   4
  -5  -5  -5 30.8704 5.45255   1
   5  -5   5 18.8206 4.78458   1
  -5   5  -5 18.0163 4.62907   5
   5   5   5 20.3028 3.98639   1
  -6  -5  -5 58.5869 5.47694   1
   6  -5   5 54.5239 5.64911   1
   6  -6  -5 -5.5063 3.56192   2
  -6  -6   5 5.00960 4.25485   1
  -6   6   5 6.56871 7.48920   5
   5  -6  -5 9.17546 8.43531   2
  -5   6   5 15.7320 3.95210   1
   5   6  -5 46.6417 21.0874   4
   4  -6  -5 113.830 15.4280   2
  -4   6   5 107.145 10.1930   1
   4   6  -5 84.0635 23.3752   4
   3  -6  -5 23.1566 8.05975   2
  -3   6   5 22.5056 5.03749   1
   3   6  -5 1.15933 11.7229   4
   2  -6  -5 3.57184 3.66073   2
   2   6  -5 5.59226 9.09514   4
  -2   6   5 2.66465 2.54049   1
   1  -6  -5 10.0477 5.18900   2
  -1   6   5 12.2909 4.08037   1
   1   6  -5 18.1184 4.89825   5
   1   6  -5 13.2718 10.0574   4
   0  -6  -5 3.60234 3.53779   2
   0   6   5 -1.0763 1.83061   1
   0   6  -5 -1.4729 9.68055   3
   0   6  -5 0.18483 2.16067   5
  -1  -6  -5 4.58519 3.52894   1
  -1  -6  -5 1.95962 3.89699   2
  -1   6  -5 3.16406 3.21917   5
   1   6   5 5.87028 13.1722   4
   1   6   5 2.51864 2.32762   1
  -1   6  -5 4.58665 11.1141   3
  -2  -6  -5 5.27859 3.76379   1
  -2  -6  -5 0.86832 4.79403   2
   2   6   5 6.14082 2.97100   1
  -2   6  -5 9.40324 13.7611   3
   2   6   5 -16.149 12.2974   4
  -2   6  -5 7.75493 3.92623   5
  -3  -6  -5 -0.8353 12.4080   3
  -3  -6  -5 10.3757 5.15249   2
  -3  -6  -5 5.52462 3.80543   1
   3   6   5 17.2908 14.6697   4
   3   6   5 11.1311 4.11732   1
  -3   6  -5 11.6883 12.5733   3
  -3   6  -5 9.06273 3.91189   5
  -4  -6  -5 -0.0917 1.99756   1
  -4  -6  -5 6.19183 7.14342   2
   4   6   5 0.23752 2.19775   1
  -4   6  -5 0.74459 2.22103   5
  -5  -6  -5 20.3330 4.02808   1
  -5   6  -5 16.2968 3.50032   5
   5  -7  -5 40.8823 8.81083   2
  -5   7   5 53.2980 8.96481   5
   4  -7  -5 184.869 23.0085   2
   3  -7  -5 913.275 58.1880   2
   3   7  -5 928.142 74.6089   4
   2  -7  -5 67.4555 13.5358   2
   2   7  -5 30.0447 18.0865   4
  -2   7   5 66.4369 7.46498   1
   1  -7  -5 575.308 39.8462   2
  -1   7   5 500.774 30.4066   1
   1   7  -5 588.395 55.1938   4
   0  -7  -5 277.100 24.3465   2
   0   7   5 233.032 17.1711   1
   0   7  -5 241.216 19.1655   5
  -1  -7  -5 213.253 20.8896   2
  -1   7  -5 217.412 17.6516   5
  -1   7  -5 199.997 48.4047   3
   1   7   5 192.938 14.3905   1
  -2  -7  -5 314.656 21.7711   1
  -2  -7  -5 275.737 23.5079   2
  -2  -7  -5 205.635 40.6462   3
  -2   7  -5 274.651 21.1560   5
  -3  -7  -5 64.5032 9.25429   2
  -3  -7  -5 69.4995 8.46962   1
  -3   7  -5 43.0512 8.30640   5
  -4  -7  -5 257.189 20.6830   1
  -4   7  -5 285.434 22.1960   5
   5  -8  -5 147.608 14.9472   2
  -5   8   5 165.779 11.7504   5
   4  -8  -5 1.29836 3.60328   2
  -4   8   5 8.76166 4.21529   5
   3  -8  -5 -3.3524 2.40527   2
   2  -8  -5 471.630 44.9263   2
   0  -8  -5 181.889 18.5593   2
   0   8  -5 163.100 13.7995   5
  -1  -8  -5 6.37716 3.92489   2
  -1   8  -5 -0.5516 2.44506   5
  -2  -8  -5 17.0330 5.90784   2
  -2   8  -5 8.18731 3.47073   5
  -3  -8  -5 300.430 21.0818   2
   3  -9  -5 107.193 12.7358   2
  -3   9   5 100.377 9.94009   5
   2  -9  -5 327.068 25.3625   2
   1  -9  -5 10.0667 4.34634   2
   0  -9  -5 84.2250 10.9963   2
   0   9  -5 71.8818 6.97048   5
  -1  -9  -5 20.7937 6.39092   2
  -1   9  -5 9.51401 3.25384   5
  -2  -9  -5 72.1549 9.46633   2
  -2   9  -5 92.5015 8.34496   5
  -8   0   6 209.376 14.7864   1
  -7   0   6 149.672 13.4247   1
  -6   0   6 833.227 45.7308   1
   6   0  -6 698.496 63.2775   4
   5   0  -6 304.081 36.6495   4
   5   0  -6 348.245 27.3841   2
  -5   0   6 320.896 23.5817   1
   4   0  -6 2408.60 119.264   2
  -4   0   6 2150.68 112.859   1
   4   0  -6 2305.62 138.935   4
   3   0  -6 1.87318 5.74211   4
   3   0  -6 6.44582 3.80933   2
   2   0  -6 9.35021 5.05538   4
   2   0  -6 7.80111 4.53723   2
   2   0  -6 9.27209 6.88097   3
   1   0  -6 4335.88 209.474   3
   1   0  -6 3647.85 204.047   4
   1   0  -6 3823.00 189.926   2
   0   0  -6 27.1423 12.0436   3
  -1   0  -6 786.128 69.9421   3
   2   0   6 109.728 10.6834   1
  -2   0  -6 144.406 29.5246   3
  -3   0  -6 44.0651 23.2155   3
   3   0   6 42.0639 7.92793   1
  -4   0  -6 405.214 55.7405   3
   4   0   6 392.105 26.4060   1
  -5   0  -6 21.6274 21.5999   3
   6   0   6 444.758 26.6718   1
  -8  -1   6 5.78544 2.54594   1
  -8   1   6 8.33965 2.88259   1
  -7  -1   6 1.65653 2.15686   1
  -7   1   6 -0.2547 1.89081   1
  -6  -1   6 5.86230 4.85721   1
  -6   1   6 4.83143 4.80940   1
   6   1  -6 26.0933 16.6952   4
   5  -1  -6 420.327 30.7182   2
  -5  -1   6 370.760 25.7732   1
   5  -1  -6 336.133 37.8110   4
   5   1  -6 328.737 39.2281   4
  -5   1   6 352.894 24.9311   1
  -4  -1   6 581.369 34.0823   1
   4  -1  -6 583.321 38.7623   2
   4  -1  -6 533.742 46.8899   4
  -4   1   6 558.458 33.7841   1
   4   1  -6 607.677 38.5451   2
   4   1  -6 515.841 49.4550   4
   3  -1  -6 348.546 34.1468   4
  -3  -1   6 352.568 24.3211   1
   3  -1  -6 375.593 27.9652   2
  -3   1   6 373.354 24.1942   1
   3   1  -6 444.235 28.9000   2
   3   1  -6 403.169 38.6733   4
   2  -1  -6 452.615 36.0261   3
   2  -1  -6 403.753 37.5114   4
   2  -1  -6 498.570 41.3305   2
  -2   1   6 447.234 27.2943   1
   2   1  -6 504.155 36.1374   3
   2   1  -6 429.145 40.1378   4
   2   1  -6 436.967 29.8552   2
   1  -1  -6 69.5556 9.04187   2
   1  -1  -6 65.4857 16.9371   3
   1   1  -6 54.4564 14.6480   4
   1   1  -6 77.0346 8.77998   2
   1   1  -6 42.4339 12.2367   3
   0  -1  -6 1343.87 69.7712   2
   0  -1  -6 1260.14 93.1901   3
   0   1  -6 1393.00 93.6698   3
  -1  -1  -6 22.7994 12.3274   3
   1   1   6 39.4115 7.61604   1
  -1   1  -6 20.9990 11.9839   3
  -2  -1  -6 -8.4582 6.67392   3
  -2  -1  -6 -5.7484 3.58096   1
   2  -1   6 -5.3024 3.27049   1
   2   1   6 -2.5510 2.91632   1
  -2   1  -6 -3.3587 6.66822   3
   3  -1   6 148.695 13.2156   1
  -3  -1  -6 86.3739 26.4983   3
  -3   1  -6 174.037 35.5460   3
   3   1   6 127.730 12.9440   1
   4  -1   6 106.919 11.1340   1
   4   1   6 121.306 12.3124   1
  -5  -1  -6 146.200 42.0680   3
   5  -1   6 174.322 14.0370   1
  -5   1  -6 117.808 43.0346   3
   5   1   6 161.225 14.2084   1
   5   1   6 172.130 55.4004   4
   6  -1   6 48.8215 8.86360   1
   6   1   6 83.5618 8.19545   1
  -8  -2   6 84.4969 7.99871   1
  -8   2   6 80.0606 7.46344   1
  -7  -2   6 149.638 13.3478   1
  -7   2   6 142.543 12.4347   1
  -6  -2   6 50.2424 8.71583   1
   6  -2  -6 45.5598 10.3115   2
  -6   2   6 42.7178 7.52915   1
   6   2  -6 66.1425 22.3792   4
  -5  -2   6 22.4572 5.54538   1
   5  -2  -6 27.2379 9.09371   2
   5   2  -6 23.0259 12.4129   4
  -5   2   6 24.3414 6.34380   1
   4  -2  -6 348.653 28.2397   2
  -4  -2   6 344.127 23.6313   1
   4   2  -6 332.820 38.2917   4
  -4   2   6 342.064 23.1553   1
   3  -2  -6 164.038 16.4557   2
  -3   2   6 177.501 14.3091   1
   3   2  -6 166.930 24.9927   4
   2  -2  -6 580.789 47.3149   3
   2  -2  -6 568.073 36.8435   2
   2   2  -6 618.993 44.2535   3
  -2   2   6 533.786 33.2133   1
   2   2  -6 599.958 50.1107   4
   1  -2  -6 171.118 15.6667   2
   1  -2  -6 160.474 26.6687   3
   1   2  -6 165.799 24.2048   3
  -1   2   6 160.861 12.9496   1
   1   2  -6 177.342 23.5876   4
   0  -2  -6 572.952 34.2058   2
   0  -2  -6 552.589 56.9319   3
   0   2  -6 545.206 52.2203   3
   0   2  -6 564.234 32.9979   5
   0   2   6 489.709 31.0178   1
  -1  -2  -6 843.382 43.4595   1
  -1  -2  -6 842.018 46.6097   2
  -1  -2  -6 866.497 78.8136   3
   1   2   6 735.310 44.2485   1
  -1   2  -6 767.890 46.1360   5
  -1   2  -6 902.456 76.6008   3
  -2  -2  -6 817.600 79.4006   3
  -2  -2  -6 735.422 38.9720   1
   2   2   6 687.728 40.8672   1
  -2   2  -6 749.501 75.4725   3
  -2   2  -6 635.076 42.8036   5
  -3  -2  -6 792.867 79.9987   3
  -3  -2  -6 752.664 41.1419   1
   3  -2   6 760.798 43.3982   1
  -3   2  -6 749.155 44.1465   5
   3   2   6 769.555 44.3321   1
  -3   2  -6 797.721 84.3974   3
  -4  -2  -6 86.1891 32.5768   3
   4  -2   6 102.310 10.5294   1
  -4  -2  -6 62.2872 7.54091   1
  -4   2  -6 75.4629 24.1804   3
   5  -2   6 9.52819 3.65900   1
  -5  -2  -6 27.9410 18.3697   3
   5   2   6 22.0143 10.3011   4
  -5   2  -6 -10.363 11.7512   3
   5   2   6 9.22714 3.54594   1
   6  -2   6 170.790 12.6290   1
  -7   3   6 261.697 17.8193   1
  -6  -3   6 97.7100 10.7067   1
   6  -3  -6 115.077 15.2874   2
  -6   3   6 113.436 11.4256   1
   6   3  -6 107.431 27.9995   4
   5  -3  -6 449.702 35.3384   2
  -5  -3   6 456.521 28.9163   1
  -5   3   6 488.259 30.0899   1
   5   3  -6 372.047 64.9349   4
   4  -3  -6 48.2778 11.3527   2
  -4  -3   6 23.8693 9.09934   1
   4   3  -6 19.7002 11.8675   4
  -4   3   6 44.9617 8.05728   1
   3  -3  -6 1693.54 91.1492   2
   3   3  -6 1763.53 110.370   4
  -3   3   6 1570.44 92.9706   1
   2  -3  -6 730.026 62.9126   3
   2  -3  -6 764.646 46.8223   2
   2   3  -6 751.182 56.7796   3
   2   3  -6 789.887 62.3513   4
  -2   3   6 742.871 42.4804   1
   1  -3  -6 860.180 74.3980   3
   1  -3  -6 844.603 50.2106   2
   1   3  -6 814.824 46.5910   5
   1   3  -6 921.901 66.0366   4
  -1   3   6 838.233 46.8182   1
   1   3  -6 887.128 68.8268   3
   0  -3  -6 2069.90 140.373   3
   0  -3  -6 2061.48 104.774   2
   0   3   6 1816.64 100.551   1
   0   3  -6 2121.82 102.955   5
   0   3  -6 2103.14 123.256   4
   0   3  -6 2108.52 134.105   3
  -1  -3  -6 15.9165 4.38661   1
  -1  -3  -6 10.9190 5.10565   2
  -1  -3  -6 15.8653 12.7345   3
   1   3   6 24.0354 4.91612   1
  -1   3  -6 22.7804 6.30999   5
  -1   3  -6 27.9826 16.3673   3
  -2  -3  -6 1495.80 123.295   3
  -2  -3  -6 1499.38 74.0143   1
  -2   3  -6 1455.15 76.7819   5
  -2   3  -6 1479.77 121.222   3
   2   3   6 1356.99 75.0144   1
  -3  -3  -6 609.244 71.4663   3
   3  -3   6 562.095 35.2956   1
  -3  -3  -6 604.379 34.8312   1
  -3   3  -6 586.361 72.6561   3
  -3   3  -6 698.932 39.0918   5
   3   3   6 612.615 37.0645   1
  -4  -3  -6 80.6159 25.9779   3
  -4  -3  -6 147.004 11.8985   1
   4  -3   6 128.822 12.2605   1
  -4   3  -6 116.155 35.4622   3
   4   3   6 160.622 14.1458   1
   6  -3   6 86.5335 7.58056   1
   6   3   6 80.6368 7.32054   1
  -7  -4   6 9.49909 3.18246   1
  -7   4   6 13.5284 3.22982   1
  -6  -4   6 154.525 13.0354   1
   6  -4  -6 119.863 17.8062   2
   6   4  -6 146.206 30.4268   4
  -6   4   6 130.083 12.1726   1
  -5  -4   6 31.4589 6.66225   1
   5  -4  -6 34.2236 9.43519   2
   5   4  -6 29.0790 15.7622   4
   4  -4  -6 236.478 23.4094   2
   4   4  -6 245.858 34.4458   4
  -4   4   6 268.622 19.5082   1
   3  -4  -6 7.68338 5.42861   2
  -3   4   6 9.02903 4.14988   1
   3   4  -6 -3.0640 7.36528   4
   2  -4  -6 111.628 13.5191   2
  -2   4   6 118.400 11.6288   1
   2   4  -6 103.650 23.7528   4
   1  -4  -6 376.709 27.4638   2
   1   4  -6 347.054 23.5946   5
  -1   4   6 347.543 30.0358   1
   1   4  -6 344.914 37.7515   4
   1   4  -6 325.313 40.4275   3
   0  -4  -6 17.2901 5.72871   2
   0   4   6 4.30407 3.07063   1
   0   4  -6 11.1441 4.29611   5
   0   4  -6 10.1764 10.7100   3
  -1  -4  -6 720.487 75.4992   3
  -1  -4  -6 690.640 39.5853   1
  -1  -4  -6 710.771 43.3162   2
  -1   4  -6 687.574 72.5229   3
  -1   4  -6 726.243 41.7736   5
   1   4   6 658.802 39.6824   1
  -2  -4  -6 2.65734 3.30241   1
  -2  -4  -6 -13.101 9.50576   3
  -2  -4  -6 4.98314 4.69090   2
   2   4   6 0.72731 2.46781   1
  -2   4  -6 9.98098 10.4285   3
  -2   4  -6 3.01421 3.11526   5
  -3  -4  -6 -4.1471 2.02842   1
  -3  -4  -6 -1.4177 9.27179   3
  -3   4  -6 4.06279 9.07439   3
   3   4   6 0.38450 2.56175   1
  -3   4  -6 1.43177 3.18220   5
  -4  -4  -6 232.111 16.0271   1
   4  -4   6 202.660 15.7148   1
   4   4   6 217.879 31.3615   4
   4   4   6 214.641 16.7015   1
  -4   4  -6 212.358 17.3504   5
  -5  -4  -6 16.3944 3.70181   1
   5  -4   6 10.0018 3.44837   1
   5   4   6 12.4518 3.14034   1
  -7  -5   6 14.7058 3.01269   1
   6  -5  -6 205.638 18.9866   2
  -6  -5   6 199.013 14.9445   1
  -6   5   6 203.588 14.3670   1
   5  -5  -6 95.9584 14.1133   2
   5   5  -6 108.505 26.4191   4
  -5   5   6 99.5514 10.5666   1
   4  -5  -6 201.160 21.4335   2
  -4   5   6 223.210 17.1600   1
   4   5  -6 224.171 33.3428   4
   3  -5  -6 357.417 30.1344   2
   3   5  -6 336.310 41.2761   4
  -3   5   6 340.099 23.7492   1
   2  -5  -6 191.183 19.5211   2
  -2   5   6 185.241 15.5732   1
   2   5  -6 171.330 27.9685   4
   1  -5  -6 156.345 16.9929   2
   1   5  -6 124.649 23.0701   4
  -1   5   6 163.578 14.0377   1
   1   5  -6 144.014 27.9871   3
   1   5  -6 156.033 14.1438   5
   0  -5  -6 7.17521 4.09275   2
   0   5  -6 2.26316 8.92155   3
   0   5   6 -0.5848 2.32955   1
   0   5  -6 2.98530 3.28382   5
  -1  -5  -6 243.732 18.7003   1
  -1  -5  -6 197.318 41.5340   3
  -1  -5  -6 255.050 22.0587   2
   1   5   6 245.693 18.5278   1
  -1   5  -6 237.643 19.7360   5
  -1   5  -6 244.069 41.6228   3
  -2  -5  -6 168.690 47.3975   3
  -2  -5  -6 187.660 15.6495   1
  -2  -5  -6 179.087 17.5510   2
  -2   5  -6 140.855 42.5933   3
   2   5   6 183.936 15.2822   1
  -2   5  -6 213.436 17.5500   5
  -3  -5  -6 17.0420 4.74212   1
  -3  -5  -6 1.65870 6.01468   2
  -3  -5  -6 18.6886 12.8438   3
   3   5   6 14.0182 4.17882   1
   3   5   6 28.8835 13.0397   4
  -3   5  -6 21.2171 5.97887   5
  -4  -5  -6 279.921 18.2130   1
  -4   5  -6 247.897 19.2047   5
   4   5   6 258.356 17.7966   1
  -5  -5  -6 10.9283 2.73756   1
   5   5   6 11.3894 2.68797   1
   6  -6  -6 -6.1112 3.77140   2
   5  -6  -6 102.209 13.7804   2
  -5   6   6 106.404 9.10143   1
   4  -6  -6 603.014 40.9605   2
  -4   6   6 526.762 32.4057   1
   4   6  -6 575.303 56.7679   4
   3  -6  -6 757.180 48.5623   2
   3   6  -6 752.778 66.4081   4
  -3   6   6 625.138 41.4458   1
   2  -6  -6 1050.75 63.5648   2
  -2   6   6 1042.34 55.7287   1
   2   6  -6 1009.31 80.5850   4
   1  -6  -6 17.0744 6.20873   2
  -1   6   6 11.1039 4.68579   1
   1   6  -6 6.66120 3.64320   5
   1   6  -6 12.0069 14.4576   4
   0  -6  -6 13.3011 5.93629   2
   0   6  -6 19.8072 19.8946   3
   0   6   6 6.59734 3.37681   1
   0   6  -6 10.9606 4.69114   5
  -1  -6  -6 829.145 49.3224   2
  -1  -6  -6 669.638 78.7647   3
  -1   6  -6 661.671 76.1513   3
  -1   6  -6 817.474 45.7191   5
   1   6   6 775.525 43.0674   1
  -2  -6  -6 724.121 40.8988   1
  -2  -6  -6 699.135 43.4999   2
   2   6   6 698.344 39.1701   1
  -2   6  -6 733.613 42.1591   5
   2   6   6 698.415 65.2506   4
  -2   6  -6 562.578 73.8450   3
  -3  -6  -6 193.984 41.5082   3
  -3  -6  -6 327.949 20.7403   1
   3   6   6 265.037 18.3473   1
  -3   6  -6 305.359 21.4959   5
  -4  -6  -6 41.3667 6.89814   1
   4   6   6 36.8454 4.75005   1
   5  -7  -6 15.8474 5.86918   2
  -5   7   6 24.5020 4.93713   5
   3  -7  -6 194.728 19.4450   2
  -3   7   6 145.354 11.7824   1
   2  -7  -6 52.8802 11.1056   2
   2   7  -6 47.6563 19.8997   4
  -2   7   6 46.8717 6.08540   1
   1  -7  -6 29.5982 8.54611   2
  -1   7   6 34.5557 5.85238   1
   0  -7  -6 33.0023 8.59119   2
   0   7   6 20.1193 4.33489   1
   0   7  -6 18.3855 4.94302   5
  -1  -7  -6 291.091 23.7333   2
  -1  -7  -6 259.426 60.2185   3
   1   7   6 256.206 17.6491   1
  -1   7  -6 283.488 20.7901   5
  -2  -7  -6 17.8314 6.02448   2
  -2   7  -6 7.94557 3.59972   5
   2   7   6 11.5032 3.51824   1
  -3  -7  -6 -5.0344 5.07019   2
  -3   7  -6 4.10471 2.66768   5
   3   7   6 -5.0754 2.74932   1
  -4   7  -6 38.7143 5.13421   5
   4  -8  -6 177.296 18.7402   2
  -4   8   6 179.778 13.6177   5
   3  -8  -6 2.94601 4.09489   2
   2  -8  -6 68.3071 12.6874   2
   1  -8  -6 214.226 20.6628   2
   0  -8  -6 83.2788 11.8406   2
   0   8  -6 66.4677 8.87905   5
  -1  -8  -6 525.067 34.9813   2
  -1   8  -6 518.246 32.9463   5
  -2  -8  -6 -3.8491 3.15223   2
  -2   8  -6 1.34178 2.34358   5
   2  -9  -6 103.188 12.0149   2
   1  -9  -6 70.3165 10.7925   2
   0  -9  -6 371.958 26.4433   2
  -7   0   7 -2.5545 1.58738   1
  -6   0   7 -0.7350 2.67239   1
   5   0  -7 10.0811 14.1334   4
  -4   0   7 2.51775 2.51550   1
   4   0  -7 -3.2063 9.92142   4
   4   0  -7 2.72165 4.31412   2
   3   0  -7 2.63917 5.93111   4
  -3   0   7 2.22266 3.49601   1
   3   0  -7 -5.0518 2.52313   2
   2   0  -7 -4.2399 3.26656   2
   2   0  -7 10.9620 8.58044   4
  -2   0   7 -0.6182 3.86155   1
   1   0  -7 -2.8687 5.59011   3
  -1   0   7 -5.9520 4.31181   1
   1   0  -7 5.63415 4.04742   2
   0   0   7 4.55647 3.02638   1
   0   0  -7 3.28727 6.76918   3
   1   0   7 -2.4700 3.05722   1
  -1   0  -7 2.27419 7.71777   3
   2   0   7 -3.7873 2.98627   1
  -2   0  -7 -1.7725 7.35490   3
  -3   0  -7 7.34080 11.0408   3
   4   0   7 -4.8926 2.41079   1
   5   0   7 1.79377 2.48746   1
   6   0   7 0.98459 1.44922   1
  -7  -1   7 278.758 19.4490   1
  -7   1   7 272.554 19.1342   1
  -6  -1   7 30.4730 5.89023   1
   6   1  -7 95.8358 41.9827   4
  -6   1   7 30.2719 6.59721   1
   5  -1  -7 1208.70 71.4393   2
   5  -1  -7 1164.89 87.9603   4
  -5  -1   7 1201.34 65.9930   1
  -5   1   7 1281.22 66.2112   1
   4  -1  -7 374.664 40.4167   4
  -4  -1   7 480.846 28.0192   1
   4   1  -7 363.002 42.6381   4
  -4   1   7 401.692 26.9034   1
   3  -1  -7 0.30333 3.18601   2
  -3  -1   7 4.45208 4.40835   1
   3   1  -7 -0.6977 6.65048   4
   3   1  -7 -0.4035 4.14581   2
  -3   1   7 -1.8894 3.10161   1
   2  -1  -7 1735.55 89.2423   2
  -2  -1   7 1419.35 86.8591   1
   2  -1  -7 1702.90 98.9482   3
   2   1  -7 1643.09 104.817   4
  -2   1   7 1746.09 84.7862   1
   2   1  -7 1683.38 87.5462   2
   1  -1  -7 6.91283 7.17031   3
   1  -1  -7 2.24711 4.35018   2
   1   1  -7 1.68826 5.81207   3
  -1   1   7 3.83307 2.79723   1
   0  -1  -7 1031.25 56.6605   2
   0  -1  -7 1010.11 82.5374   3
   0   1  -7 1048.43 82.0436   3
   0   1   7 985.555 54.1361   1
  -1  -1  -7 563.366 60.2018   3
   1  -1   7 499.309 30.5039   1
  -1   1  -7 528.423 58.8649   3
   1   1   7 475.321 30.5303   1
  -2  -1  -7 71.5489 26.2222   3
   2   1   7 79.6178 9.60480   1
  -2   1  -7 71.1576 26.0616   3
  -3  -1  -7 720.157 80.9399   3
   3  -1   7 807.548 45.3677   1
   3   1   7 850.187 46.4636   1
  -3   1  -7 791.619 83.7791   3
  -4  -1  -7 16.6225 17.6011   3
   4  -1   7 3.94221 3.39384   1
  -4   1  -7 15.8160 12.6522   3
   5  -1   7 142.137 11.8846   1
   5   1   7 130.784 11.6815   1
   6  -1   7 130.746 10.0137   1
   6   1   7 134.120 9.92295   1
  -7  -2   7 9.16684 3.17869   1
  -7   2   7 7.27489 3.27164   1
   6  -2  -7 728.696 45.5964   2
  -6  -2   7 698.099 39.6501   1
   6   2  -7 583.450 58.7177   4
  -6   2   7 688.941 40.2918   1
  -5  -2   7 5.01336 4.12365   1
   5  -2  -7 15.8702 6.90368   2
   5   2  -7 14.0369 11.5396   4
  -5   2   7 12.9511 4.84873   1
  -4  -2   7 161.431 14.9398   1
   4  -2  -7 172.506 18.7100   2
   4   2  -7 141.848 29.4640   4
  -4   2   7 156.432 14.2909   1
   3  -2  -7 1230.88 67.0189   2
   3   2  -7 1045.64 82.2794   4
  -3   2   7 1100.40 60.6711   1
   2  -2  -7 22.0908 6.41771   2
   2  -2  -7 5.27735 12.7629   3
   2   2  -7 9.73877 6.49494   4
  -2   2   7 22.5631 5.54029   1
   1  -2  -7 1491.96 106.941   3
   1  -2  -7 1673.10 84.8397   2
  -1   2   7 1412.87 79.4716   1
   1   2  -7 1646.01 105.680   3
   1   2  -7 1645.56 103.920   4
   0  -2  -7 -0.2881 3.47389   2
   0  -2  -7 9.96466 11.0335   3
   0   2   7 -4.6641 2.41391   1
  -1  -2  -7 2.44155 8.50665   3
   1   2   7 0.67977 2.15846   1
  -1   2  -7 0.89086 6.26952   3
   2  -2   7 397.787 34.3781   1
  -2  -2  -7 528.555 63.0924   3
   2   2   7 548.255 31.7859   1
  -2   2  -7 527.104 64.7546   3
  -3  -2  -7 15.9419 13.5347   3
   3  -2   7 13.0119 4.31082   1
  -3   2  -7 3.20136 14.3259   3
   3   2   7 13.9970 4.67915   1
   4  -2   7 867.328 44.9285   1
  -4  -2  -7 774.472 81.7842   3
   4   2   7 858.870 46.0143   1
  -4   2  -7 640.323 79.1284   3
   5  -2   7 -0.1215 2.22859   1
   5   2   7 6.28992 3.14159   1
  -7  -3   7 48.5320 6.42678   1
  -7   3   7 50.2527 6.30492   1
   6  -3  -7 253.506 23.5017   2
  -6  -3   7 217.609 17.1442   1
  -6   3   7 245.030 18.2452   1
   5  -3  -7 5.15241 5.06689   2
  -5  -3   7 7.54656 4.21261   1
  -5   3   7 2.62825 3.49958   1
   5   3  -7 29.1054 12.3627   4
   4  -3  -7 -1.9665 3.49299   2
  -4   3   7 -2.7296 2.29026   1
   4   3  -7 1.23562 7.58571   4
   3   3  -7 195.990 31.0505   4
  -3   3   7 190.526 16.3199   1
   2  -3  -7 211.972 20.1506   2
   2  -3  -7 164.632 30.5963   3
  -2   3   7 207.750 16.6029   1
   2   3  -7 210.860 29.8631   4
   1  -3  -7 41.5908 9.61251   2
   1  -3  -7 52.7979 22.0743   3
   1   3  -7 58.5173 17.7148   4
  -1   3   7 35.7335 6.92375   1
   1   3  -7 39.9686 18.1096   3
   0  -3  -7 32.3358 8.06092   2
   0  -3  -7 21.5360 14.5200   3
   0   3  -7 22.0783 15.3984   3
   0   3   7 30.6730 5.93726   1
  -1  -3  -7 7.84005 6.28261   2
  -1  -3  -7 4.74488 13.3275   3
   1   3   7 15.8407 4.49686   1
  -1   3  -7 15.2630 5.12021   5
  -1   3  -7 4.34190 10.5022   3
  -2  -3  -7 426.249 57.9224   3
  -2   3  -7 451.204 61.5306   3
  -2   3  -7 481.897 30.8222   5
   2   3   7 436.269 29.1429   1
  -3  -3  -7 -14.708 10.3527   3
   3   3   7 2.66113 3.80778   1
  -3   3  -7 -4.4360 12.2806   3
  -4  -3  -7 65.0130 29.3921   3
   4  -3   7 126.031 11.1304   1
  -4   3  -7 62.5032 31.8223   3
   4   3   7 138.300 12.0256   1
   5  -3   7 -1.2429 2.46179   1
   5   3   7 3.27660 2.25434   1
  -7  -4   7 43.7555 5.35578   1
   6  -4  -7 157.955 17.5628   2
  -6  -4   7 178.511 13.5911   1
  -6   4   7 215.093 15.1132   1
   5  -4  -7 546.573 39.7680   2
  -5   4   7 561.616 33.6962   1
   5   4  -7 509.601 51.9272   4
   4  -4  -7 700.887 47.0783   2
   4   4  -7 609.912 61.7798   4
  -4   4   7 683.590 39.8369   1
   3  -4  -7 331.304 28.1884   2
   3   4  -7 302.904 38.8297   4
  -3   4   7 328.242 23.3551   1
   2  -4  -7 112.929 29.2837   3
   2  -4  -7 125.203 15.6025   2
   2   4  -7 93.2432 24.1486   4
  -2   4   7 115.823 11.9834   1
   1  -4  -7 471.457 61.3023   3
   1  -4  -7 696.153 44.2061   2
   1   4  -7 647.228 57.0332   4
  -1   4   7 644.338 37.1423   1
   1   4  -7 569.267 59.1097   3
   0  -4  -7 1224.96 107.008   3
   0  -4  -7 1253.03 71.7420   2
   0   4   7 1210.04 65.6452   1
   0   4  -7 1316.25 67.2622   5
   0   4  -7 1183.73 98.7837   3
  -1  -4  -7 460.531 62.6860   3
  -1   4  -7 506.041 63.3739   3
  -1   4  -7 554.313 34.7048   5
   1   4   7 570.372 33.2825   1
  -2  -4  -7 209.251 42.7750   3
   2   4   7 288.748 20.4118   1
  -2   4  -7 213.373 40.9355   3
  -2   4  -7 294.320 21.6999   5
  -3  -4  -7 -0.0279 10.1674   3
   3   4   7 7.45376 3.47648   1
  -3   4  -7 0.17282 15.6574   3
   4   4   7 180.917 14.0306   1
   5   4   7 591.935 31.4193   1
   6  -5  -7 5.07835 4.03008   2
  -6   5   7 2.67440 2.15209   1
   5  -5  -7 224.121 21.9396   2
  -5   5   7 237.793 17.3078   1
   4  -5  -7 624.601 42.9854   2
  -4   5   7 608.296 35.2344   1
   4   5  -7 517.526 56.6242   4
   3  -5  -7 239.213 23.3782   2
   3   5  -7 164.751 30.6633   4
  -3   5   7 262.767 19.0883   1
   2  -5  -7 151.597 17.5795   2
  -2   5   7 164.548 14.5037   1
   2   5  -7 113.600 27.4784   4
   1  -5  -7 61.4037 22.3130   3
   1  -5  -7 86.8543 12.3873   2
   1   5  -7 53.8581 16.6744   4
   1   5  -7 27.5919 25.8665   3
  -1   5   7 88.9883 10.1428   1
   0  -5  -7 427.475 31.6836   2
   0   5   7 426.037 27.8147   1
   0   5  -7 426.797 28.6757   5
  -1  -5  -7 440.196 64.0433   3
  -1  -5  -7 523.416 35.2111   2
  -1   5  -7 479.376 62.7986   3
   1   5   7 540.294 32.0688   1
  -1   5  -7 524.563 33.4295   5
  -2  -5  -7 187.710 46.4054   3
   2   5   7 236.856 17.2457   1
  -2   5  -7 219.587 18.5329   5
  -2   5  -7 187.262 39.2979   3
   2   5   7 179.677 33.0205   4
  -3   5  -7 108.555 11.0312   5
   3   5   7 84.2384 9.17016   1
   4   5   7 156.836 14.4280   1
   6  -6  -7 5.59364 4.29307   2
   5  -6  -7 3.65963 4.02569   2
  -5   6   7 3.19017 2.44132   1
   4  -6  -7 31.0825 8.54958   2
  -4   6   7 25.0643 4.57935   1
   3  -6  -7 0.83831 4.13550   2
  -3   6   7 1.54565 2.08612   1
   3   6  -7 -11.950 17.7741   4
   2  -6  -7 11.0269 5.47131   2
   2   6  -7 7.78230 11.5711   4
  -2   6   7 11.1424 4.27808   1
   1  -6  -7 99.6164 35.4609   3
   1  -6  -7 131.454 16.0640   2
  -1   6   7 129.205 12.4067   1
   0  -6  -7 3.90090 3.55563   2
   0  -6  -7 1.79253 19.6887   3
   0   6  -7 2.14767 2.11688   5
   0   6  -7 -17.629 23.4444   3
   0   6   7 -0.8073 2.08235   1
  -1  -6  -7 8.25944 5.18309   2
  -1  -6  -7 14.5015 17.9126   3
  -1   6  -7 25.9692 19.6591   3
  -1   6  -7 13.4707 4.90529   5
   1   6   7 17.7117 4.71105   1
   2   6   7 84.2769 8.72527   1
  -2   6  -7 79.9468 10.0649   5
  -3   6  -7 2.13108 2.01957   5
   3   6   7 -0.3872 1.38011   1
   4   6   7 1.83787 1.85020   1
   5  -7  -7 204.126 17.0571   2
  -5   7   7 211.648 13.8576   5
  -4   7   7 100.145 8.01288   1
   3  -7  -7 252.201 22.0945   2
  -3   7   7 207.002 15.7544   1
   2  -7  -7 168.214 17.9814   2
  -2   7   7 162.330 12.2203   1
   1  -7  -7 7.20450 5.03723   2
  -1   7   7 6.84541 2.78518   1
   0  -7  -7 577.480 38.0567   2
   0   7   7 540.266 31.0998   1
  -1  -7  -7 435.851 29.8716   2
  -1   7  -7 411.491 26.5391   5
   1   7   7 413.818 24.2113   1
  -2  -7  -7 181.980 16.1637   2
   2   7   7 199.538 12.6270   1
  -2   7  -7 244.313 19.2484   5
   3  -8  -7 77.4208 11.2449   2
   2  -8  -7 102.594 12.9544   2
   1  -8  -7 206.755 18.9355   2
   0  -8  -7 487.741 32.4339   2
  -1  -8  -7 167.732 14.8196   2
  -7   0   8 16.7670 4.36069   1
  -6   0   8 298.030 21.3529   1
   5   0  -8 878.399 72.4798   4
  -5   0   8 964.384 52.6710   1
  -4   0   8 40.8743 7.39242   1
   4   0  -8 38.9390 9.44605   2
   4   0  -8 24.5586 13.9006   4
   3   0  -8 2007.47 111.162   2
  -3   0   8 1945.00 99.9409   1
   2   0  -8 54.7532 11.1835   2
  -2   0   8 59.4779 12.4764   1
   1   0  -8 566.997 55.2734   3
  -1   0   8 641.914 36.6279   1
   0   0  -8 1285.18 100.903   3
   0   0   8 1286.92 69.0670   1
  -1   0  -8 178.964 36.3617   3
   1   0   8 175.665 15.0207   1
  -2   0  -8 1931.69 176.328   3
   2   0   8 2254.12 107.018   1
   3   0   8 140.286 12.3149   1
  -3   0  -8 90.9782 29.7238   3
   4   0   8 9.00112 3.23921   1
   5   0   8 299.319 18.5489   1
  -7  -1   8 268.498 17.1964   1
  -7   1   8 234.936 16.8063   1
  -6  -1   8 26.7424 5.74145   1
  -6   1   8 24.3674 4.99670   1
  -5  -1   8 40.7749 7.44409   1
   5  -1  -8 59.4692 11.4007   2
  -5   1   8 39.1205 7.22306   1
   5   1  -8 10.1882 14.2032   4
  -4  -1   8 549.950 33.5860   1
   4  -1  -8 568.085 39.2072   2
   4   1  -8 444.377 67.6037   4
  -4   1   8 556.181 34.0256   1
   3  -1  -8 2.73260 4.31848   2
  -3  -1   8 8.23157 4.80409   1
  -3   1   8 -2.1085 3.36374   1
  -2  -1   8 678.139 40.3783   1
   2  -1  -8 731.109 45.4693   2
  -2   1   8 681.948 40.6712   1
   1  -1  -8 99.9988 24.3042   3
   1  -1  -8 106.964 13.1115   2
  -1  -1   8 84.6972 11.4727   1
   1   1  -8 89.1662 24.7579   3
  -1   1   8 95.8815 10.5506   1
   0  -1  -8 254.632 39.5844   3
   0  -1   8 226.811 18.3644   1
   0   1   8 251.145 18.2961   1
   0   1  -8 243.575 36.7930   3
   1  -1   8 409.616 26.0538   1
  -1  -1  -8 400.662 55.9458   3
  -1   1  -8 377.930 52.2418   3
   1   1   8 389.935 25.8207   1
   2  -1   8 4.67314 3.83040   1
  -2  -1  -8 5.05679 10.4267   3
   2   1   8 0.08093 2.26325   1
  -2   1  -8 5.34331 12.8066   3
  -3  -1  -8 285.258 48.8315   3
   3  -1   8 359.515 22.6560   1
   3   1   8 367.592 23.4674   1
  -3   1  -8 253.942 47.2764   3
   4  -1   8 9.98047 3.31292   1
   4   1   8 7.10480 3.05139   1
   5   1   8 52.0182 5.86704   1
  -7  -2   8 48.9382 6.31475   1
  -7   2   8 57.5911 6.47882   1
  -6  -2   8 37.1778 6.80168   1
  -6   2   8 27.8798 5.77976   1
  -5  -2   8 235.364 17.6140   1
   5  -2  -8 273.718 24.0329   2
  -5   2   8 225.955 18.5574   1
   5   2  -8 218.988 34.4073   4
   4  -2  -8 46.9784 10.0175   2
  -4  -2   8 45.0017 7.34633   1
   4   2  -8 21.8924 11.1925   4
  -4   2   8 54.7185 7.60950   1
   3  -2  -8 0.91210 3.83986   2
  -3   2   8 1.14330 2.41544   1
   2  -2  -8 310.443 36.8965   2
   2   2  -8 397.524 43.0920   4
  -2   2   8 389.052 25.7617   1
   1  -2  -8 92.7403 26.1584   3
   1  -2  -8 127.335 14.3249   2
  -1   2   8 83.1633 9.80305   1
   1   2  -8 94.7329 26.5290   3
   0  -2  -8 25.9295 17.2791   3
   0   2   8 29.2806 5.86369   1
   0   2  -8 23.9867 13.4204   3
  -1  -2  -8 26.7632 14.3357   3
   1   2   8 39.6044 7.50468   1
  -1   2  -8 33.9956 20.4938   3
  -2  -2  -8 46.0957 21.6000   3
   2  -2   8 27.1230 6.41686   1
   2   2   8 14.4359 5.18729   1
  -2   2  -8 28.3599 21.3893   3
  -3  -2  -8 56.3387 23.7814   3
  -3   2  -8 43.1873 23.2207   3
   4  -2   8 53.3964 6.82553   1
   4   2   8 70.7645 7.90106   1
   5  -2   8 46.4373 5.28369   1
   5   2   8 41.8934 5.05181   1
  -7  -3   8 290.000 17.2762   1
  -7   3   8 310.992 18.3377   1
  -6  -3   8 390.430 24.4926   1
   6  -3  -8 448.775 30.3974   2
  -6   3   8 404.302 25.7324   1
  -5  -3   8 16.7934 5.64177   1
   5  -3  -8 25.2002 8.33637   2
   5   3  -8 -2.7232 10.5791   4
  -5   3   8 18.3904 5.25240   1
   4  -3  -8 489.755 36.0860   2
   4   3  -8 380.261 46.7440   4
  -4   3   8 473.053 30.1042   1
   3   3  -8 54.9120 20.6569   4
  -3   3   8 61.3856 8.57880   1
   2  -3  -8 364.504 28.7253   2
   2   3  -8 336.666 40.6971   4
  -2   3   8 351.877 24.6491   1
   1  -3  -8 502.774 59.7633   3
   1  -3  -8 622.068 39.6463   2
  -1   3   8 579.594 34.9626   1
   1   3  -8 543.051 58.4599   3
   0  -3  -8 -1.3642 4.30061   2
   0  -3  -8 -0.6654 14.5302   3
   0   3   8 2.73095 2.71501   1
   0   3  -8 8.92700 14.2964   3
  -1  -3  -8 217.905 42.2706   3
   1   3   8 211.800 16.9626   1
  -1   3  -8 198.193 37.5976   3
  -2  -3  -8 -5.1325 11.2411   3
  -2   3  -8 25.0372 21.1743   3
   2   3   8 7.62495 3.16650   1
  -3  -3  -8 249.571 44.4103   3
   3   3   8 399.724 23.9641   1
  -3   3  -8 327.391 55.0524   3
   4  -3   8 293.448 20.4880   1
   4   3   8 306.861 19.6871   1
   6  -4  -8 24.0626 6.88396   2
  -6   4   8 23.0254 4.83825   1
   5  -4  -8 94.9242 12.5134   2
  -5   4   8 79.1362 9.65219   1
   4  -4  -8 153.075 18.3860   2
  -4   4   8 174.378 14.8573   1
   4   4  -8 179.809 35.7837   4
   3  -4  -8 74.2941 13.9733   2
   3   4  -8 102.601 33.0739   4
  -3   4   8 89.5688 11.7075   1
   2  -4  -8 51.5572 10.9876   2
  -2   4   8 71.5231 9.07881   1
   2   4  -8 42.0078 17.5816   4
   1  -4  -8 25.8636 23.1208   3
   1  -4  -8 26.2396 6.88503   2
  -1   4   8 17.5117 5.15525   1
   0  -4  -8 23.4709 20.9650   3
   0  -4  -8 5.49888 4.72208   2
   0   4  -8 -12.163 14.3563   3
   0   4   8 7.20842 3.62316   1
  -1  -4  -8 -9.5058 11.8031   3
  -1  -4  -8 -7.5798 6.46993   2
   1   4   8 2.12688 2.69677   1
  -1   4  -8 -2.5935 14.2868   3
  -2  -4  -8 116.771 38.0518   3
   2   4   8 155.914 13.6374   1
   3   4   8 -1.5431 1.22184   1
   4   4   8 2.49536 1.89855   1
  -6   5   8 114.788 8.50518   1
   5  -5  -8 379.741 27.7966   2
  -5   5   8 318.927 21.4932   1
   4  -5  -8 91.3058 13.3180   2
  -4   5   8 95.6736 9.90355   1
   3  -5  -8 -2.6053 3.15887   2
   3   5  -8 -13.198 10.4426   4
  -3   5   8 1.63066 2.33629   1
   2  -5  -8 422.017 32.8389   2
   2   5  -8 374.196 45.3031   4
  -2   5   8 461.885 28.4334   1
   1  -5  -8 1037.92 63.2852   2
  -1   5   8 1091.29 58.0989   1
   0  -5  -8 429.941 30.8699   2
   0  -5  -8 365.130 53.2525   3
   0   5   8 433.105 27.3855   1
  -1  -5  -8 261.690 46.2344   3
  -1   5  -8 286.427 44.4702   3
   2   5   8 336.214 22.0475   1
   3   5   8 8.42214 3.08651   1
   5  -6  -8 362.060 28.2689   2
  -5   6   8 324.313 18.4061   1
  -5   6   8 317.113 18.4155   5
   4  -6  -8 74.6286 10.9082   2
  -4   6   8 61.6832 8.20313   1
   3  -6  -8 407.510 30.7079   2
  -3   6   8 397.575 24.5389   1
   2  -6  -8 700.223 46.6784   2
  -2   6   8 754.606 40.8946   1
   1  -6  -8 370.083 28.2675   2
  -1   6   8 344.040 22.9629   1
   0  -6  -8 831.382 50.1871   2
   0   6   8 839.052 45.6873   1
   2   6   8 98.1824 9.73433   1
   3   6   8 708.398 35.8002   1
   4  -7  -8 7.94972 4.01667   2
   3  -7  -8 3.35197 3.74855   2
  -3   7   8 2.12760 2.12675   1
   2  -7  -8 37.6655 8.71748   2
  -2   7   8 39.6498 4.95462   1
   1  -7  -8 338.944 25.8861   2
  -1   7   8 329.315 19.7491   1
   0  -7  -8 110.350 12.6423   2
   0   7   8 116.480 9.06381   1
  -1  -7  -8 18.8279 8.66600   2
   1   7   8 24.6003 3.88589   1
  -6   0   9 3.46604 2.64714   1
  -5   0   9 0.15870 2.17521   1
  -4   0   9 2.80174 2.84017   1
  -3   0   9 4.07531 3.23335   1
  -2   0   9 -2.4944 2.97089   1
  -1   0   9 0.19865 3.52192   1
   0   0   9 -0.3188 2.62554   1
   0   0  -9 -4.9009 16.6147   3
   1   0   9 7.98336 3.05515   1
  -1   0  -9 -9.7152 13.0834   3
  -2   0  -9 14.3809 13.9597   3
   3   0   9 -2.9329 1.95412   1
   4   0   9 -0.8277 1.45691   1
  -6  -1   9 360.883 22.3940   1
  -5  -1   9 78.3750 9.46203   1
  -5   1   9 80.4664 9.68024   1
  -4  -1   9 462.754 30.0212   1
   4  -1  -9 527.168 36.0704   2
  -4   1   9 496.079 31.1407   1
   3  -1  -9 173.130 18.1937   2
  -3   1   9 176.440 15.7926   1
   2  -1  -9 41.6092 9.64156   2
  -2  -1   9 50.7878 8.51218   1
  -2   1   9 43.0487 8.10083   1
  -1  -1   9 575.961 33.7645   1
  -1   1   9 532.722 33.7155   1
   0  -1  -9 8.14299 19.5983   3
   0  -1   9 9.54384 3.56391   1
   0   1  -9 -3.5277 16.0360   3
   1  -1   9 668.997 37.0169   1
  -1  -1  -9 596.595 70.2205   3
  -1   1  -9 527.069 67.2443   3
   1   1   9 695.641 38.0008   1
  -2  -1  -9 346.979 55.6838   3
   2  -1   9 497.144 28.3469   1
   2   1   9 471.000 28.2945   1
  -2   1  -9 393.279 103.920   3
   3  -1   9 7.50062 5.31888   1
   3   1   9 7.44146 3.46685   1
   4  -1   9 215.841 13.4620   1
   4   1   9 181.796 13.3769   1
  -6  -2   9 171.848 12.7462   1
  -6   2   9 168.360 13.5213   1
   5  -2  -9 449.930 32.2460   2
  -5  -2   9 445.456 26.6668   1
  -5   2   9 411.235 27.4226   1
  -4  -2   9 13.4199 4.68428   1
   4  -2  -9 3.35508 4.60363   2
   4   2  -9 19.8807 11.9104   4
  -4   2   9 2.62395 3.72533   1
   3  -2  -9 289.208 25.4944   2
  -3   2   9 303.206 22.1507   1
   2  -2  -9 400.636 30.9802   2
  -2   2   9 413.467 27.4092   1
   0  -2  -9 844.959 84.7982   3
   0   2  -9 824.283 83.4283   3
   0   2   9 988.505 51.0118   1
  -1  -2  -9 76.0939 32.0627   3
   1   2   9 113.071 11.0102   1
  -1   2  -9 74.6015 29.7431   3
  -2  -2  -9 38.6863 26.8934   3
  -2   2  -9 47.7730 30.3285   3
   2   2   9 57.9011 7.61851   1
   3  -2   9 162.311 12.6231   1
   3   2   9 191.925 13.9491   1
   4  -2   9 208.325 12.4787   1
   4   2   9 208.490 13.8711   1
  -6   3   9 10.7563 3.20163   1
   5  -3  -9 26.5936 7.06680   2
  -5   3   9 22.2706 5.17879   1
   4  -3  -9 17.7760 8.78581   2
   4   3  -9 43.6380 15.5550   4
  -4   3   9 20.2578 5.51686   1
   3  -3  -9 243.618 23.0600   2
  -3   3   9 249.734 19.0725   1
   3   3  -9 229.261 32.1688   4
   2  -3  -9 98.0624 13.8862   2
  -2   3   9 97.5459 10.9913   1
  -1   3   9 44.6241 7.69870   1
   0  -3  -9 14.0828 21.2625   3
   0   3  -9 22.4975 28.1083   3
  -1  -3  -9 457.861 70.5902   3
   1   3   9 434.592 27.9337   1
   2   3   9 131.457 11.8297   1
   3   3   9 149.162 12.0665   1
   5  -4  -9 116.138 13.6726   2
  -5   4   9 138.674 12.5454   1
   4  -4  -9 262.768 23.5494   2
  -4   4   9 292.265 19.6709   1
   3  -4  -9 94.4230 19.1016   2
   3   4  -9 151.956 26.0788   4
  -3   4   9 114.705 11.6203   1
   2  -4  -9 954.358 59.3821   2
  -2   4   9 1030.81 54.7346   1
   1  -4  -9 65.6632 14.2141   2
  -1   4   9 74.2023 9.14786   1
   0  -4  -9 36.7048 50.1416   3
   1   4   9 419.456 26.6244   1
   2   4   9 55.0846 6.97471   1
   3   4   9 482.793 27.2809   1
   5  -5  -9 4.08078 3.56458   2
  -5   5   9 12.1536 3.08171   1
   4  -5  -9 44.5381 9.56137   2
  -4   5   9 49.5439 6.57868   1
   3  -5  -9 553.217 39.2052   2
  -3   5   9 625.627 34.4469   1
   2  -5  -9 68.0619 12.2030   2
  -2   5   9 57.6525 7.64515   1
   1  -5  -9 114.361 14.1084   2
  -1   5   9 134.556 12.7190   1
   0  -5  -9 0.48390 5.25632   2
   0   5   9 24.3174 4.83807   1
   1   5   9 117.022 10.6701   1
   2   5   9 352.140 21.3088   1
   4  -6  -9 1.44212 3.47360   2
  -4   6   9 8.22784 2.66381   1
   3  -6  -9 7.64093 4.78135   2
  -3   6   9 2.84775 2.32756   1
   2  -6  -9 14.7314 5.07379   2
  -2   6   9 12.4888 3.69880   1
   1  -6  -9 8.30267 4.38615   2
  -1   6   9 7.26416 2.69483   1
   0  -6  -9 9.90413 5.66832   2
   0   6   9 7.30410 3.35253   1
   1   6   9 8.21799 2.60269   1
   2  -7  -9 48.4179 7.43023   2
   1  -7  -9 287.531 22.6503   2
  -1   7   9 329.353 18.5174   1
  -6   0  10 59.7968 6.11403   1
  -5   0  10 404.714 25.2433   1
  -4   0  10 52.8122 7.43102   1
  -3   0  10 341.952 23.3810   1
  -2   0  10 599.839 35.3205   1
  -1   0  10 107.606 10.7103   1
   0   0  10 446.633 27.7177   1
   1   0  10 189.789 14.6665   1
   2   0  10 504.121 28.7244   1
   3   0  10 379.317 21.5457   1
  -6  -1  10 59.1317 6.32268   1
  -6   1  10 76.2244 7.00938   1
  -5  -1  10 23.7555 4.54476   1
  -5   1  10 24.5197 5.02708   1
  -4  -1  10 -2.5861 2.84872   1
  -4   1  10 0.76614 2.49360   1
  -3  -1  10 -4.1252 3.64772   1
  -3   1  10 -1.3900 1.97003   1
  -2  -1  10 10.6435 4.85023   1
  -2   1  10 7.75921 4.43644   1
  -1  -1  10 900.470 46.9871   1
  -1   1  10 807.133 46.9421   1
   0  -1  10 31.0234 6.44929   1
   0   1  10 36.8905 6.94904   1
   1  -1  10 30.4844 5.80570   1
   1   1  10 33.0942 5.83827   1
   2  -1  10 47.2465 6.22685   1
   2   1  10 58.3073 10.0465   1
   3  -1  10 191.700 12.4046   1
   3   1  10 194.407 13.0217   1
  -5  -2  10 54.9832 7.72958   1
  -5   2  10 48.9727 6.68892   1
   4  -2 -10 544.792 35.9607   2
  -4   2  10 550.218 32.2651   1
   3  -2 -10 9.06304 5.69501   2
  -3   2  10 4.16879 2.76027   1
  -1   2  10 220.002 16.8524   1
   0   2  10 -1.5413 1.90218   1
   1   2  10 400.888 25.0109   1
   2   2  10 -0.0300 1.78274   1
   3   2  10 30.0565 4.17620   1
  -5   3  10 369.962 22.7205   1
   4  -3 -10 7.92556 4.45474   2
  -4   3  10 10.7788 3.90703   1
   3  -3 -10 755.787 46.3831   2
  -3   3  10 759.944 42.4358   1
   2  -3 -10 110.312 12.9529   2
  -1   3  10 337.232 22.5919   1
   0   3  10 762.327 42.3069   1
   1   3  10 22.1036 4.76715   1
   2   3  10 275.634 17.8116   1
   4  -4 -10 147.525 16.4015   2
  -4   4  10 158.585 12.0524   1
   3  -4 -10 75.8537 10.4167   2
  -3   4  10 88.3803 8.89050   1
   2  -4 -10 100.515 11.9612   2
  -2   4  10 129.090 11.1793   1
  -1   4  10 97.9723 9.79963   1
   0   4  10 23.6906 4.83718   1
   1   4  10 30.9234 5.45986   1
   2   4  10 68.5387 6.64135   1
   3  -5 -10 113.067 12.4149   2
  -3   5  10 151.744 11.0159   1
   2  -5 -10 12.9191 4.85883   2
  -2   5  10 4.24687 2.40530   1
  -1   5  10 27.8024 4.97807   1
   0   5  10 139.218 11.0165   1
   1   5  10 14.0043 3.31163   1
  -3   0  11 0.55215 2.43654   1
  -2   0  11 0.56603 2.10819   1
  -1   0  11 -2.1997 2.62498   1
   0   0  11 -1.7218 2.07717   1
   1   0  11 0.61931 2.41217   1
  -4  -1  11 120.871 9.26244   1
  -4   1  11 125.227 10.2320   1
  -3  -1  11 240.988 16.6287   1
  -3   1  11 250.991 16.9077   1
  -2   1  11 543.653 31.1557   1
  -1   1  11 0.06578 2.06599   1
   0   1  11 116.491 9.86170   1
   1   1  11 387.842 22.5820   1
  -4   2  11 155.268 11.7505   1
  -3   2  11 203.158 14.5709   1
  -2   2  11 340.784 21.6134   1
  -1   2  11 158.769 12.4779   1
   0   2  11 277.325 17.9486   1
   1   2  11 98.8986 8.53190   1
  -3   3  11 220.245 14.8058   1
  -2   3  11 9.90560 2.92629   1
  -1   3  11 11.7912 2.93557   1
   0   3  11 63.8700 6.38732   1
  -2   4  11 6.98083 2.54309   1
  -1   4  11 877.859 45.3383   1
   0   0   0    0.00    0.00   0

 _exptl_absorpt_process_details
)
 SADABS 2016/2: Krause, L., Herbst-Irmer, R., Sheldrick G.M. & Stalke D.,
 J. Appl. Cryst. 48 (2015) 3-10
)
 _exptl_absorpt_correction_type   multi-scan
 _exptl_absorpt_correction_T_max  0.7528
 _exptl_absorpt_correction_T_min  0.5379
 _exptl_special_details
)
 The following wavelength and cell were deduced by SADABS from the
 direction cosines etc. They are given here for emergency use only:
 CELL 1.54181    7.372    8.981   10.080   89.985  100.445   90.027
)

;
_shelx_hkl_checksum              4696

