####################################################################### 
# 
# This file contains crystal structure data downloaded from the 
# Cambridge Structural Database (CSD) hosted by the Cambridge 
# Crystallographic Data Centre (CCDC).
# 
# Full information about CCDC data access policies and citation 
# guidelines are available at http://www.ccdc.cam.ac.uk/access/V1 
# 
# Audit and citation data items may have been added by the CCDC. 
# Please retain this information to preserve the provenance of 
# this file and to allow appropriate attribution of the data. 
# 
#######################################################################

data_MIL-53Alsinglecrystal
_audit_block_doi                 10.5517/ccdc.csd.cc1n4v8x
_database_code_depnum_ccdc_archive 'CCDC 1523999'
loop_
_citation_id
_citation_doi
_citation_year
1 10.1002/chem.201703682 2017
_audit_update_record             
;
2017-05-28 deposited with the CCDC.	2023-06-16 downloaded from the CCDC.
;
_audit_creation_method           SHELXL-2014/7
_shelx_SHELXL_version_number     2014/7
_chemical_name_systematic        ?
_chemical_name_common            ?
_chemical_melting_point          ?
_chemical_formula_moiety         ?
_chemical_formula_sum            'C8 H5 Al O5'
_chemical_formula_weight         208.10

loop_
_atom_type_symbol
_atom_type_description
_atom_type_scat_dispersion_real
_atom_type_scat_dispersion_imag
_atom_type_scat_source
C C 0.0033 0.0016 'International Tables Vol C Tables 4.2.6.8 and 6.1.1.4'
H H 0.0000 0.0000 'International Tables Vol C Tables 4.2.6.8 and 6.1.1.4'
Al Al 0.0645 0.0514 'International Tables Vol C Tables 4.2.6.8 and 6.1.1.4'
O O 0.0106 0.0060 'International Tables Vol C Tables 4.2.6.8 and 6.1.1.4'

_space_group_crystal_system      orthorhombic
_space_group_IT_number           74
_space_group_name_H-M_alt        'I m m a'
_space_group_name_Hall           '-I 2b 2'

_shelx_space_group_comment       
;
The symmetry employed for this shelxl refinement is uniquely defined
by the following loop, which should always be used as a source of
symmetry information in preference to the above space-group names.
They are only intended as comments.
;

loop_
_space_group_symop_operation_xyz
'x, y, z'
'-x, -y+1/2, z'
'x, -y, -z'
'-x, y+1/2, -z'
'x+1/2, y+1/2, z+1/2'
'-x+1/2, -y+1, z+1/2'
'x+1/2, -y+1/2, -z+1/2'
'-x+1/2, y+1, -z+1/2'
'-x, -y, -z'
'x, y-1/2, -z'
'-x, y, z'
'x, -y-1/2, z'
'-x+1/2, -y+1/2, -z+1/2'
'x+1/2, y, -z+1/2'
'-x+1/2, y+1/2, z+1/2'
'x+1/2, -y, z+1/2'

_cell_length_a                   17.291(4)
_cell_length_b                   6.6006(16)
_cell_length_c                   11.887(3)
_cell_angle_alpha                90
_cell_angle_beta                 90
_cell_angle_gamma                90
_cell_volume                     1356.7(6)
_cell_formula_units_Z            4
_cell_measurement_temperature    100(2)
_cell_measurement_reflns_used    6992
_cell_measurement_theta_min      2.3625
_cell_measurement_theta_max      28.3765

_exptl_crystal_description       block
_exptl_crystal_colour            colourless
_exptl_crystal_density_meas      ?
_exptl_crystal_density_method    ?
_exptl_crystal_density_diffrn    1.019
_exptl_crystal_F_000             424
_exptl_transmission_factor_min   ?
_exptl_transmission_factor_max   ?
_exptl_crystal_size_max          0.220
_exptl_crystal_size_mid          0.200
_exptl_crystal_size_min          0.180
_exptl_absorpt_coefficient_mu    0.143
_shelx_estimated_absorpt_T_min   0.969
_shelx_estimated_absorpt_T_max   0.975
_exptl_absorpt_correction_type   multi-scan
_exptl_absorpt_correction_T_min  0.969
_exptl_absorpt_correction_T_max  0.975
_exptl_absorpt_process_details   '(SADABS; Sheldrick, 2003)'
_exptl_absorpt_special_details   ?
_diffrn_ambient_temperature      100(2)
_diffrn_radiation_wavelength     0.71073
_diffrn_radiation_type           MoK\a
_diffrn_source                   ?
_diffrn_measurement_device_type  'Bruker Apex2 CCD'
_diffrn_measurement_method       '\w scans'
_diffrn_detector_area_resol_mean ?
_diffrn_reflns_number            4408
_diffrn_reflns_av_unetI/netI     0.0163
_diffrn_reflns_av_R_equivalents  0.0226
_diffrn_reflns_limit_h_min       -20
_diffrn_reflns_limit_h_max       20
_diffrn_reflns_limit_k_min       -7
_diffrn_reflns_limit_k_max       7
_diffrn_reflns_limit_l_min       -13
_diffrn_reflns_limit_l_max       14
_diffrn_reflns_theta_min         2.079
_diffrn_reflns_theta_max         25.248
_diffrn_reflns_theta_full        25.242
_diffrn_measured_fraction_theta_max 0.996
_diffrn_measured_fraction_theta_full 0.996
_diffrn_reflns_Laue_measured_fraction_max 0.996
_diffrn_reflns_Laue_measured_fraction_full 0.996
_diffrn_reflns_point_group_measured_fraction_max 0.996
_diffrn_reflns_point_group_measured_fraction_full 0.996
_reflns_number_total             698
_reflns_number_gt                636
_reflns_threshold_expression     'I > 2\s(I)'
_reflns_Friedel_coverage         0.000
_reflns_Friedel_fraction_max     .
_reflns_Friedel_fraction_full    .

_reflns_special_details          
;
 Reflections were merged by SHELXL according to the crystal
 class for the calculation of statistics and refinement.
 
 Structure factors included contributions from the .fab file.
 
 _reflns_Friedel_fraction is defined as the number of unique
 Friedel pairs measured divided by the number that would be
 possible theoretically, ignoring centric projections and
 systematic absences.
;

_computing_data_collection       'APEX2 (Bruker, 2005)'
_computing_cell_refinement       'SAINT (Bruker, 2005)'
_computing_data_reduction        SAINT
_computing_structure_solution    'SHELXS-2014 (Sheldrick, 2014)'
_computing_structure_refinement  'SHELXL-2014/7 (Sheldrick, 2014)'
_computing_molecular_graphics    SHELXTL
_computing_publication_material  SHELXTL
_refine_special_details          ?
_refine_ls_structure_factor_coef Fsqd
_refine_ls_matrix_type           full
_refine_ls_weighting_scheme      calc
_refine_ls_weighting_details     
'w=1/[\s^2^(Fo^2^)+(0.0813P)^2^+1.8552P] where P=(Fo^2^+2Fc^2^)/3'
_atom_sites_solution_primary     ?
_atom_sites_solution_secondary   ?
_atom_sites_solution_hydrogens   difmap
_refine_ls_hydrogen_treatment    constr
_refine_ls_extinction_method     none
_refine_ls_extinction_coef       .
_refine_ls_number_reflns         695
_refine_ls_number_parameters     67
_refine_ls_number_restraints     54
_refine_ls_R_factor_all          0.0439
_refine_ls_R_factor_gt           0.0419
_refine_ls_wR_factor_ref         0.1343
_refine_ls_wR_factor_gt          0.1321
_refine_ls_goodness_of_fit_ref   1.161
_refine_ls_restrained_S_all      1.146
_refine_ls_shift/su_max          0.000
_refine_ls_shift/su_mean         0.000

loop_
_atom_site_label
_atom_site_type_symbol
_atom_site_fract_x
_atom_site_fract_y
_atom_site_fract_z
_atom_site_U_iso_or_equiv
_atom_site_adp_type
_atom_site_occupancy
_atom_site_site_symmetry_order
_atom_site_calc_flag
_atom_site_refinement_flags_posn
_atom_site_refinement_flags_adp
_atom_site_refinement_flags_occupancy
_atom_site_disorder_assembly
_atom_site_disorder_group
C3' C 0.7068(5) 0.0694(13) 0.2617(10) 0.024(2) Uani 0.49(3) 1 d . U P . .
H3' H 0.6984 -0.0474 0.3037 0.029 Uiso 0.49(3) 1 d R U P A .
C3 C 0.7241(5) 0.0682(12) 0.2973(9) 0.023(2) Uani 0.51(3) 1 d . U P . .
H3 H 0.6953 -0.0504 0.2916 0.027 Uiso 0.51(3) 1 d R U P A .
Al1 Al 0.5000 0.0000 0.5000 0.0075(3) Uani 1 4 d S T P . .
O2 O 0.5000 0.2500 0.56654(18) 0.010 Uani 1 4 d S TU P A 1
H2 H 0.5448 0.2500 0.6157 0.011 Uiso 0.5 2 d R U P A 1
C1 C 0.6004(7) 0.2500 0.3620(10) 0.009(2) Uani 0.51(3) 2 d S TU P A 1
C2 C 0.6720(6) 0.2500 0.2922(10) 0.0128(19) Uani 0.51(3) 2 d S TU P A 1
O1 O 0.5733(6) 0.0842(17) 0.3883(8) 0.0092(14) Uani 0.51(3) 1 d . U P A 1
C1' C 0.6147(7) 0.2500 0.3886(11) 0.013(2) Uani 0.49(3) 2 d S TU P A 2
C2' C 0.6892(6) 0.2500 0.3262(10) 0.012(2) Uani 0.49(3) 2 d S TU P A 2
O1' O 0.5851(7) 0.075(2) 0.4123(9) 0.0158(18) Uani 0.49(3) 1 d . U P A 2

loop_
_atom_site_aniso_label
_atom_site_aniso_U_11
_atom_site_aniso_U_22
_atom_site_aniso_U_33
_atom_site_aniso_U_23
_atom_site_aniso_U_13
_atom_site_aniso_U_12
C3' 0.023(3) 0.015(2) 0.033(4) 0.000(3) 0.011(3) -0.002(2)
C3 0.023(3) 0.009(2) 0.036(4) 0.002(2) 0.014(3) -0.002(2)
Al1 0.0056(5) 0.0065(6) 0.0104(5) 0.0002(3) 0.000 0.000
O2 0.011 0.007 0.010 0.000 0.000 0.000
C1 0.008(3) 0.009(3) 0.009(4) 0.000 -0.003(3) 0.000
C2 0.011(3) 0.012(3) 0.015(4) 0.000 -0.001(3) 0.000
O1 0.011(3) 0.0063(17) 0.010(3) 0.003(2) 0.006(2) 0.0025(18)
C1' 0.013(4) 0.013(3) 0.011(4) 0.000 -0.001(3) 0.000
C2' 0.010(3) 0.011(3) 0.013(4) 0.000 0.000(3) 0.000
O1' 0.018(3) 0.012(2) 0.017(3) 0.004(2) 0.001(2) 0.001(2)

_geom_special_details            
;
 All esds (except the esd in the dihedral angle between two l.s. planes)
 are estimated using the full covariance matrix.  The cell esds are taken
 into account individually in the estimation of esds in distances, angles
 and torsion angles; correlations between esds in cell parameters are only
 used when they are defined by crystal symmetry.  An approximate (isotropic)
 treatment of cell esds is used for estimating esds involving l.s. planes.
;

loop_
_geom_bond_atom_site_label_1
_geom_bond_atom_site_label_2
_geom_bond_distance
_geom_bond_site_symmetry_2
_geom_bond_publ_flag
C3' C3 1.387(5) 8_645 ?
C3' C2' 1.450(12) . ?
C3' C3' 1.521(17) 8_645 ?
C3' H3' 0.9300 . ?
C3' H3 0.8893 . ?
C3 C3' 1.387(5) 8_645 ?
C3 C3 1.439(14) 8_645 ?
C3 C2 1.501(12) . ?
C3 H3' 0.8860 . ?
C3 H3 0.9301 . ?
Al1 O2 1.8299(10) 9_656 ?
Al1 O2 1.8299(10) . ?
Al1 O1' 1.870(11) . ?
Al1 O1' 1.870(11) 11_655 ?
Al1 O1' 1.870(11) 3_556 ?
Al1 O1' 1.870(11) 9_656 ?
Al1 O1 1.918(9) 3_556 ?
Al1 O1 1.918(9) 11_655 ?
Al1 O1 1.918(9) 9_656 ?
Al1 O1 1.918(9) . ?
O2 Al1 1.8299(10) 2_655 ?
O2 H2 0.9700 . ?
C1 O1 1.231(12) . ?
C1 O1 1.231(12) 12_565 ?
C1 C2 1.490(13) . ?
C2 C3' 1.384(9) 12_565 ?
C2 C3 1.501(12) 12_565 ?
C1' O1' 1.297(14) 12_565 ?
C1' O1' 1.297(14) . ?
C1' C2' 1.487(14) . ?
C2' C3 1.386(8) 12_565 ?
C2' C3' 1.450(12) 12_565 ?

loop_
_geom_angle_atom_site_label_1
_geom_angle_atom_site_label_2
_geom_angle_atom_site_label_3
_geom_angle
_geom_angle_site_symmetry_1
_geom_angle_site_symmetry_3
_geom_angle_publ_flag
C3 C3' C2' 116.9(10) 8_645 . ?
C3 C3' C3' 19.9(4) 8_645 8_645 ?
C2' C3' C3' 107.6(10) . 8_645 ?
C3 C3' H3' 113.6 8_645 . ?
C2' C3' H3' 111.4 . . ?
C3' C3' H3' 104.5 8_645 . ?
C3 C3' H3 112.9 8_645 . ?
C2' C3' H3 118.3 . . ?
C3' C3' H3 106.9 8_645 . ?
H3' C3' H3 9.5 . . ?
C3' C3 C3 21.0(3) 8_645 8_645 ?
C3' C3 C2 119.5(9) 8_645 . ?
C3 C3 C2 110.0(9) 8_645 . ?
C3' C3 H3' 118.7 8_645 . ?
C3 C3 H3' 112.3 8_645 . ?
C2 C3 H3' 113.1 . . ?
C3' C3 H3 115.4 8_645 . ?
C3 C3 H3 106.0 8_645 . ?
C2 C3 H3 110.5 . . ?
H3' C3 H3 9.4 . . ?
O2 Al1 O2 180.0 9_656 . ?
O1' Al1 O1' 103.9(7) . 11_655 ?
O1' Al1 O1' 76.1(7) . 3_556 ?
O1' Al1 O1' 180.0(6) 11_655 3_556 ?
O1' Al1 O1' 180.0 . 9_656 ?
O1' Al1 O1' 76.1(7) 11_655 9_656 ?
O1' Al1 O1' 103.9(7) 3_556 9_656 ?
O2 Al1 O1 92.2(3) 9_656 3_556 ?
O2 Al1 O1 87.8(3) . 3_556 ?
O2 Al1 O1 87.8(3) 9_656 11_655 ?
O2 Al1 O1 92.2(3) . 11_655 ?
O1 Al1 O1 180.0 3_556 11_655 ?
O2 Al1 O1 92.2(3) 9_656 9_656 ?
O2 Al1 O1 87.8(3) . 9_656 ?
O1 Al1 O1 82.7(7) 3_556 9_656 ?
O1 Al1 O1 97.3(7) 11_655 9_656 ?
O2 Al1 O1 87.8(3) 9_656 . ?
O2 Al1 O1 92.2(3) . . ?
O1 Al1 O1 97.3(7) 3_556 . ?
O1 Al1 O1 82.7(7) 11_655 . ?
O1 Al1 O1 180.0 9_656 . ?
Al1 O2 Al1 128.78(12) . 2_655 ?
Al1 O2 H2 105.1 . . ?
Al1 O2 H2 105.1 2_655 . ?
O1 C1 O1 125.6(12) . 12_565 ?
O1 C1 C2 117.2(6) . . ?
O1 C1 C2 117.2(6) 12_565 . ?
C3' C2 C1 120.5(4) 12_565 . ?
C3' C2 C3 20.2(4) 12_565 12_565 ?
C1 C2 C3 118.4(5) . 12_565 ?
C3' C2 C3 116.0(8) 12_565 . ?
C1 C2 C3 118.4(5) . . ?
C3 C2 C3 106.1(12) 12_565 . ?
C1 O1 Al1 133.2(8) . . ?
O1' C1' O1' 126.5(13) 12_565 . ?
O1' C1' C2' 116.8(7) 12_565 . ?
O1' C1' C2' 116.8(7) . . ?
C3 C2' C3' 119.3(7) 12_565 . ?
C3 C2' C3' 20.9(3) 12_565 12_565 ?
C3' C2' C3' 110.6(12) . 12_565 ?
C3 C2' C1' 120.0(4) 12_565 . ?
C3' C2' C1' 116.4(5) . . ?
C3' C2' C1' 116.4(5) 12_565 . ?
C1' O1' Al1 131.8(9) . . ?

loop_
_geom_torsion_atom_site_label_1
_geom_torsion_atom_site_label_2
_geom_torsion_atom_site_label_3
_geom_torsion_atom_site_label_4
_geom_torsion
_geom_torsion_site_symmetry_1
_geom_torsion_site_symmetry_2
_geom_torsion_site_symmetry_3
_geom_torsion_site_symmetry_4
_geom_torsion_publ_flag
O1 Al1 O2 Al1 138.6(3) 3_556 . . 2_655 ?
O1 Al1 O2 Al1 -41.4(3) 11_655 . . 2_655 ?
O1 Al1 O2 Al1 -138.6(3) 9_656 . . 2_655 ?
O1 Al1 O2 Al1 41.4(3) . . . 2_655 ?
O1 C1 C2 C3' -178.5(14) . . . 12_565 ?
O1 C1 C2 C3' 1.7(17) 12_565 . . 12_565 ?
O1 C1 C2 C3 -155.4(12) . . . 12_565 ?
O1 C1 C2 C3 24.8(15) 12_565 . . 12_565 ?
O1 C1 C2 C3 -24.8(15) . . . . ?
O1 C1 C2 C3 155.4(12) 12_565 . . . ?
C3' C3 C2 C3' -21(3) 8_645 . . 12_565 ?
C3 C3 C2 C3' -42(3) 8_645 . . 12_565 ?
C3' C3 C2 C1 -176.2(11) 8_645 . . . ?
C3 C3 C2 C1 163.0(8) 8_645 . . . ?
C3' C3 C2 C3 -40(3) 8_645 . . 12_565 ?
C3 C3 C2 C3 -61(2) 8_645 . . 12_565 ?
O1 C1 O1 Al1 -16.7(18) 12_565 . . . ?
C2 C1 O1 Al1 163.4(7) . . . . ?
C3 C3' C2' C3 23(3) 8_645 . . 12_565 ?
C3' C3' C2' C3 42(3) 8_645 . . 12_565 ?
C3 C3' C2' C3' 44(3) 8_645 . . 12_565 ?
C3' C3' C2' C3' 63(2) 8_645 . . 12_565 ?
C3 C3' C2' C1' 179.7(11) 8_645 . . . ?
C3' C3' C2' C1' -161.3(8) 8_645 . . . ?
O1' C1' C2' C3 0.6(17) 12_565 . . 12_565 ?
O1' C1' C2' C3 179.6(14) . . . 12_565 ?
O1' C1' C2' C3' -156.2(13) 12_565 . . . ?
O1' C1' C2' C3' 22.8(15) . . . . ?
O1' C1' C2' C3' -22.8(15) 12_565 . . 12_565 ?
O1' C1' C2' C3' 156.2(13) . . . 12_565 ?
O1' C1' O1' Al1 -8.3(18) 12_565 . . . ?
C2' C1' O1' Al1 172.8(7) . . . . ?
O1' Al1 O1' C1' 73.5(11) 11_655 . . . ?
O1' Al1 O1' C1' -106.5(11) 3_556 . . . ?

_refine_diff_density_max         0.767
_refine_diff_density_min         -0.586
_refine_diff_density_rms         0.064

_shelx_res_file                  
;

    mo_MIL53100K_0m_sq.res created by SHELXL-2014/7

TITL Imma
CELL 0.71073 17.291 6.6006 11.887 90 90 90
ZERR 4 0.004 0.0016 0.003 0 0 0
LATT 2
SYMM -X,0.5-Y,+Z
SYMM +X,-Y,-Z
SYMM -X,0.5+Y,-Z
SFAC C  H  Al O
UNIT 32 20 4 20
OMIT   0.00  50.50
L.S. 45
ACTA
BOND $H
abin
FMAP 2
PLAN -8
CONF
SIZE 0.22 0.18 0.2
ISOR 0.005 0.01 C3' C3 C1 C2 C1' C2' O2 O1 O1'
FREE C3'  C3
FREE C3'  H3
FREE C3'  C2
FREE C3   C2'
FREE H3'  C3
TEMP 18
WGHT    0.081300    1.855200
FVAR       5.45996   0.51091
C3'   1    0.706760    0.069391    0.261676   -21.00000    0.02281    0.01507 =
         0.03347    0.00043    0.01119   -0.00244
AFIX   3
H3'   2    0.698420   -0.047419    0.303706   -21.00000   -1.20000
AFIX   0
C3    1    0.724052    0.068237    0.297301    21.00000    0.02332    0.00883 =
         0.03565    0.00154    0.01399   -0.00185
AFIX   3
H3    2    0.695322   -0.050433    0.291551    21.00000   -1.20000
AFIX   0
AL1   3    0.500000    0.000000    0.500000    10.25000    0.00562    0.00648 =
         0.01038    0.00016    0.00000    0.00000
PART 1
AFIX   2
O2    4    0.500000    0.250000    0.566545    10.25000    0.01078    0.00740 =
         0.01034    0.00000    0.00000    0.00000
AFIX   3
H2    2    0.544770    0.250000    0.615715    10.25000   -1.20000
AFIX   0
C1    1    0.600373    0.250000    0.362010    20.50000    0.00843    0.00937 =
         0.00914    0.00000   -0.00262    0.00000
C2    1    0.671963    0.250000    0.292229    20.50000    0.01125    0.01217 =
         0.01484    0.00000   -0.00069    0.00000
O1    4    0.573292    0.084161    0.388258    21.00000    0.01095    0.00629 =
         0.01032    0.00336    0.00612    0.00254
PART 2
C1'   1    0.614702    0.250000    0.388592   -20.50000    0.01325    0.01319 =
         0.01119    0.00000   -0.00135    0.00000
C2'   1    0.689234    0.250000    0.326220   -20.50000    0.01037    0.01150 =
         0.01275    0.00000   -0.00035    0.00000
O1'   4    0.585128    0.074585    0.412311   -21.00000    0.01818    0.01220 =
         0.01691    0.00410    0.00141    0.00115
PART 0
HKLF 4 1 0 0 1 1 0 0 0 1 0

REM  Imma
REM R1 =  0.0419 for     636 Fo > 4sig(Fo)  and  0.0439 for all     695 data
REM     67 parameters refined using     54 restraints

END

WGHT      0.0821      1.8102

REM Highest difference peak  0.767,  deepest hole -0.586,  1-sigma level  0.064
Q1    1   0.5000  0.2500  0.6593  10.25000  0.05    0.35
Q2    1   0.6658 -0.1004  0.2736  11.00000  0.05    0.20
Q3    1   0.6693 -0.1387  0.2974  11.00000  0.05    0.20
Q4    1   0.4610  0.0696  0.4466  11.00000  0.05    0.20
Q5    1   0.7193  0.0772  0.1790  11.00000  0.05    0.18
Q6    1   0.6113  0.2500  0.2668  10.50000  0.05    0.18
Q7    1   0.7436  0.0948  0.1532  11.00000  0.05    0.18
Q8    1   0.6891  0.0862  0.1975  11.00000  0.05    0.17
;
_shelx_res_checksum              77188

_shelx_hkl_file                  
;
   1   0   0       3      13
   1   0   0       3       9
   1   0   0       3      16
   2   0   0   80427    1216
   2   0   0   85588    1212
   3   0   0       3      39
   3   0   0       3      24
   3   0   0       3      29
   4   0   0   76013    2069
   4   0   0   79184    2070
   4   0   0   75498    1947
  -5   0   0       0      63
   5   0   0       0      47
  -6   0   0  135269    3417
   6   0   0  136754    3216
  -7   0   0       2      96
   7   0   0       3      76
   8   0   0    2410     191
  -8   0   0    2457     218
   1  -1   0  395099    9673
  -1   1   0  410969    9635
   1   1   0  375736    9509
   2  -1   0      65      35
   2   1   0       2      26
   2  -1   0      50      31
   2  -1   0       1      12
   3   1   0   93430    2286
   3  -1   0   85415    2128
   3   1   0   87089    2263
   4   1   0       0      50
   4  -1   0       0      45
   4   1   0       1      17
   4   1   0       1      38
   4  -1   0       0      40
  -4   1   0       0      50
   5  -1   0   91729    2339
   5   1   0   88965    2329
  -5   1   0   88425    2335
  -6  -1   0       8      80
   6  -1   0       6      69
  -6   1   0      58      84
   6   1   0       5      62
   6  -1   0       6      58
  -7  -1   0    8309     344
  -7   1   0    8808     347
   7   1   0    8498     319
   7  -1   0    8740     321
  -8  -1   0      82     113
   8  -1   0       5      98
  -8   1   0       1     111
   8   1   0      48      91
   0  -2   0    8305    3086
   0   2   0    6900    3046
   1  -2   0       2      14
   1   2   0       0      21
  -1   2   0       2      22
   1   2   0       0      12
   2   2   0   16884     625
   2  -2   0   18647     632
  -2   2   0   19149     624
   3   2   0       0      27
   3  -2   0       1      35
   3   2   0       0      38
   4   2   0   16937     463
   4  -2   0   18498     466
  -4   2   0   18215     491
   4  -2   0   19012     494
  -5   2   0       1      71
   6  -2   0   31718     841
   6   2   0   31711     839
   6  -2   0   32674     887
  -6   2   0   31423     889
   7  -2   0      11      87
   7   2   0       3      77
  -7   2   0       7     102
  -7  -2   0       1      91
  -8  -2   0   18886     613
   8   2   0   19661     575
   8  -2   0   19813     581
  -8   2   0   19175     611
   0   3   0       1      19
   0  -3   0       3      24
   2   3   0      10      33
   2  -3   0       1      15
   2  -3   0       1      12
  -2   3   0       1      37
   3  -3   0   72490    1730
  -3   3   0   75202    1841
   3   3   0   73490    1837
   3  -3   0   75048    1850
  -4   3   0       2      59
   4   3   0       2      41
   4   3   0       2      53
   4  -3   0       2      49
   4  -3   0       2      48
   5  -3   0       3      61
   5  -3   0     119      29
  -5   3   0      27      79
   6  -3   0       0      67
   6   3   0       0      70
  -6   3   0       0      88
   6  -3   0       0      78
  -7   3   0    1494     178
   7   3   0    1131     153
  -7  -3   0    1379     170
   7  -3   0    1191     166
   7  -3   0    1059     158
  -8  -3   0      16     112
  -8   3   0      82     116
   8  -3   0      10     106
   8   3   0       2      90
   0  -4   0   28992    2056
   0   4   0   28125    2036
   1  -4   0       1      31
   1   4   0       4      27
  -2   4   0   54720    1723
   2   4   0   54421    1632
   3   4   0       2      28
  -3   4   0       1      46
   3  -4   0      20      46
  -4   4   0   18869     513
   4  -4   0   19134     524
   4   4   0   17909     520
   5   4   0       8      53
   5   4   0       7      76
  -5   4   0       1      78
   5  -4   0       1      59
   6  -4   0   61330    1581
   6  -4   0   60153    1482
   6   4   0   58979    1479
  -6   4   0   57619    1560
  -7  -4   0      54      94
  -7   4   0     128      98
   7  -4   0      15      81
   7   4   0      34      79
   7  -4   0       9      95
   8   4   0    1643     186
  -8  -4   0    1999     206
   8  -4   0    1512     201
   0   5   0       6      12
   0   5   0       6      23
   0  -5   0       6      32
   1   5   0   27806     764
   1  -5   0   28654     781
  -2   5   0       2      42
   2   5   0       1      19
   2  -5   0      13      38
   2   5   0      31      37
   3  -5   0   60739    1495
   3  -5   0   57009    1593
   3   5   0   58318    1579
  -3   5   0   57466    1565
   4   5   0       3      65
   4  -5   0       2      56
   4  -5   0      19      23
  -4   5   0      12      67
   5  -5   0    3487     192
  -5   5   0    3254     191
   5  -5   0    3433     197
   5   5   0    3938     213
   5   5   0    3557     180
   6   5   0       1      73
   6  -5   0       0      80
   6  -5   0       0      91
   7   5   0    9214     327
   7  -5   0    9147     333
   7  -5   0    9215     351
  -7  -5   0    9677     354
   8  -5   0       1     104
   0   6   0   34457     370
   0  -6   0   33590     388
  -1  -6   0       1      32
   1  -6   0       1      40
  -1   6   0       1      23
   1   6   0       1      30
   2   6   0     622      49
   2  -6   0     635      50
   2   6   0     450      24
  -2   6   0     607      42
  -2   6   0     446      35
  -3   6   0      14      60
   3  -6   0      14      23
   3   6   0       8      52
   4  -6   0   37735    1061
   4   6   0   39544    1052
   5   6   0      22      93
   5  -6   0       9      91
   5   6   0      36      76
   6  -6   0   63789    1651
   6   6   0   64272    1645
   6  -6   0   61917    1542
   6   6   0   60399    1538
   7  -6   0      34     110
   7  -6   0      16      95
   7   6   0       1      87
   8  -6   0   27409     808
   0  -7   0      16      42
   0   7   0       2      27
   1   7   0   23055     595
  -1  -7   0   23529     602
   1  -7   0   22709     618
   2  -7   0      15      59
   2   7   0      15      48
  -2   7   0       0      31
   3  -7   0   29638     571
   4   7   0       1      75
   4   7   0       2      63
   4  -7   0       3      62
   5  -7   0   12308     448
   5   7   0   14015     447
   5   7   0   13700     418
   5  -7   0   13528     437
   6  -7   0       1      95
   6   7   0       2      83
   6  -7   0       1     107
   7  -7   0    1387     205
   7  -7   0    1372     216
   7   7   0    1400     173
   0  -8   0   25651    1219
   1  -8   0       7      57
  -1  -8   0       2      47
   2  -8   0   51578    1545
   2   8   0   51205    1515
   3   8   0      15      66
  -3   8   0       3      91
   3   8   0      28      46
   4   8   0    3180     195
   4  -8   0    3872     208
  -4   8   0    3777     228
   4   8   0    2844     191
   5  -8   0       1     101
   5   8   0      26      92
   5   8   0     100     104
   6  -8   0    6865     306
   6  -8   0    6605     305
   6   8   0    6243     271
   7  -8   0       4     117
   7   8   0      10      94
   0  -9   0       2      66
   1  -9   0     103      66
  -1  -9   0     191      56
  -2   9   0      16     101
   2   9   0       0      65
   2  -9   0       0      76
   3  -9   0   13360     414
   3   9   0   12550     389
  -3   9   0   13605     407
   3   9   0   12321     392
   4   9   0       2      82
   4  -9   0       4      92
  -4   9   0      45     117
   4   9   0       2      87
  -5   9   0    1274     228
   5   9   0    1002     178
   6   9   0       0      89
   6  -9   0       1     113
   0  10   0   77852    1518
   0 -10   0   77293    1594
   1 -10   0       1      74
  -1  10   0      10     113
   1  10   0       1     101
  -2  10   0   43922    1353
   2 -10   0   42714    1429
   2  10   0   42439    1346
  -3  10   0       0     122
   3  10   0       0      90
   3 -10   0       0      88
   4  10   0    2072     191
  -4  10   0    2621     224
   4 -10   0    2464     201
   5 -10   0      93     120
   5  10   0      18     105
  -5  10   0     135     143
   6 -10   0     139     134
   6  10   0     266     109
  -6  10   0     284     159
   0 -11   0      47      87
   0  11   0       8     122
  -1  11   0   17243     505
   1  11   0   17324     498
   1 -11   0   17013     499
   2  11   0       0     104
  -2  11   0      55     133
   2 -11   0       1      92
   3 -11   0      29      99
  -3  11   0      29     137
   3  11   0      18      97
   4  11   0       3     103
   4 -11   0       3     106
  -4  11   0       2     139
  -5  11   0   11787     423
   5  11   0   11864     414
   5 -11   0   11757     440
   0  12   0    7513     418
   1 -12   0       0      87
   1  12   0       0     120
   2 -12   0   14315     486
  -2  12   0   15414     504
   2  12   0   13969     470
  -3  12   0       3     146
   3  12   0       0     111
   3 -12   0       3     102
  -4  12   0    3705     269
   4  12   0    2945     223
   4 -12   0    3287     241
  -5  12   0      53     171
   5  12   0      14     126
   5 -12   0       2     140
   0  13   0       0     152
   1  13   0    1008     148
  -1  13   0    1019     164
   2  13   0       2     121
   2 -13   0       4     103
  -2  13   0       4     161
  -3  13   0    1798     260
   3 -13   0    2084     206
   3  13   0    1667     214
  -4  13   0       1     173
   4 -13   0       1     125
   4  13   0       1     124
   0  14   0    4153     364
   1  14   0       1     134
   2 -14   0    1033     133
   2  14   0     896     156
  -2  14   0     493     183
   3  14   0       0     140
   3 -14   0       1     124
  -3  14   0       1     187
   0  15   0       6     172
   0   0   1      11       3
   0   0  -1      11       4
   1   0  -1      30      14
   1   0   1      13      16
   1   0  -1      36      13
   1   0  -1      30      15
  -1   0  -1      28       7
   3   0   1       5      32
   3   0  -1       4      38
   3   0  -1      12      32
   3   0   1       0      38
  -3   0  -1       5      48
   3   0  -1       7      39
   4   0   1       2      39
   4   0  -1       0      48
   4   0  -1       0      45
   4   0  -1       0      35
  -4   0  -1       2      52
   4   0   1       2      41
  -5   0  -1      18      74
   5   0  -1      28      61
   6   0   1       3      70
   6   0  -1      18      70
  -6   0  -1       1      83
   7   0  -1       1      81
   7   0   1       3      82
  -7   0  -1       1      98
  -7   0   1       7      95
  -8   0  -1      20     116
   8   0   1      19      92
  -8   0   1      68     107
   8   0  -1       2      92
   0  -1   1 1189235    2645
   0   1  -1 1216762    2860
   0   1   1 1236596    2830
   0  -1  -1 1199429    2655
   0  -1  -1 1243277    2854
   0   1  -1 1179917    2699
   1  -1   1    3285     111
   1   1  -1    3859     104
   1  -1   1    3400     104
   1   1   1    3841     108
   1  -1  -1    3638     104
   1  -1  -1    3575     111
   1   1   1    3653     104
   1  -1  -1    3274     104
  -1   1  -1    3466     110
   2  -1   1   35111    1181
   2   1  -1   35331    1108
   2  -1   1   36473    1108
   2  -1  -1   35058    1179
   2  -1  -1   36784    1108
   2  -1  -1   34041    1172
   2   1   1   34348    1108
   2   1   1   34845    1175
  -2   1  -1   35652    1176
   3   1  -1     701      57
   3   1  -1     715      73
   3  -1   1     582      72
   3   1  -1     772      69
   3  -1  -1     567      58
  -3   1  -1     559      77
   3   1   1     535      67
   3   1   1     752      70
   3  -1  -1     552      72
   3   1   1     742      62
   4   1  -1   43966    1146
   4   1  -1   46210    1082
   4  -1   1   47288    1148
   4   1   1   40921    1073
   4  -1  -1   44264    1146
   4   1   1   44390    1135
  -4   1  -1   45714    1148
   4  -1  -1   44505    1144
   4  -1  -1   45585    1084
   5   1  -1     747      84
   5   1  -1     754     102
  -5  -1  -1     670     115
   5   1  -1     680     116
   5  -1   1     632      83
  -5   1  -1     729     100
   5  -1  -1     623      96
   5   1   1     657      91
   5  -1  -1     710     106
  -6  -1  -1   11700     400
  -6   1   1   11567     395
   6  -1   1   12720     387
   6   1  -1   12105     371
   6  -1   1   12146     375
  -6   1  -1   12041     403
   6   1   1   11659     371
   6  -1  -1   11993     379
   6  -1  -1   11969     375
   7   1  -1     136      79
   7  -1   1      83      87
  -7   1   1     257      98
  -7  -1  -1     165      97
   7  -1  -1     159      88
  -7   1  -1     143     107
  -7  -1   1     249      92
   7   1   1     154      84
   8  -1   1    9266     354
  -8  -1  -1    9611     388
   8   1  -1    9399     352
  -8   1   1    9817     375
  -8  -1   1    9486     377
  -8   1  -1    9408     381
   8   1   1    9589     353
   8  -1  -1    9573     356
   0   2  -1   24499     434
   0  -2   1   23328     460
   0   2   1   24251     434
   0   2  -1   22756     457
   0  -2  -1   24004     463
   1  -2   1  103484    2551
   1   2  -1  100120    2707
   1   2  -1  100661    2548
   1   2   1  105257    2536
   1  -2  -1  105562    2666
   1  -2  -1  107494    2548
   1   2   1  104385    2763
   1   2   1   97841    2686
  -1   2  -1   99448    2692
   2  -2   1    1042     137
   2   2  -1    2189     140
   2   2   1    1867     142
   2   2   1    1708     135
   2  -2  -1    1729     136
  -2   2  -1    1719     146
   3   2  -1   93777    2309
   3  -2   1   83983    2292
   3  -2   1   93891    2474
   3   2   1   99157    2455
   3  -2  -1   94912    2301
  -3   2  -1   95944    2480
   3  -2  -1   91177    2467
   3   2   1   93749    2434
   3   2   1   94962    2295
   4   2  -1     130      50
   4   2  -1     153      45
   4  -2   1     144      47
   4  -2   1     149      48
   4  -2  -1     189      47
  -4   2  -1      96      60
   4   2   1     123      46
   4  -2  -1     203      54
   5   2  -1   22447     592
   5  -2   1   23906     632
  -5   2   1   23180     627
   5  -2  -1   23592     627
   5   2   1   23022     610
   5  -2  -1   23507     595
  -5   2  -1   22817     634
   6   2  -1    1609     163
  -6  -2  -1    1500     159
   6   2  -1    1438     135
  -6   2   1    1562     156
   6  -2   1    1469     145
   6  -2   1    1466     142
   6   2   1    1487     138
  -6   2  -1    1802     169
   6  -2  -1    1604     131
   6  -2  -1    1449     144
   7   2  -1    5273     226
   7  -2   1    4891     234
   7  -2   1    4754     231
  -7   2   1    5405     247
  -7  -2  -1    5336     253
   7   2   1    5248     227
  -7   2  -1    5130     256
  -7  -2   1    5502     252
   7  -2  -1    5016     234
  -8  -2  -1     214     118
  -8   2   1     164     116
   8   2  -1     294      98
   8  -2   1      83     104
  -8  -2   1     419     118
  -8   2  -1     127     120
   8   2   1     223      98
   8  -2  -1      24     106
   0   3  -1   10936      64
  -1   3   1     688      70
   1  -3   1     755      70
   1   3  -1     661      68
   1   3  -1     654      63
   1   3   1     784      70
   1  -3  -1     686      66
   1   3   1     651      58
  -1   3  -1     774      66
  -2   3   1   44018     770
   2  -3   1   39349     731
   2   3  -1   43959     779
   2   3   1   43922     735
   2   3   1   44889     777
  -2   3  -1   45950     774
   3   3  -1     167      50
   3  -3   1     102      49
   3  -3   1     136      48
  -3   3   1     168      49
   3   3  -1     177      47
   3   3   1     224      51
   3  -3  -1     184      47
   3   3   1     214      54
  -3   3  -1      89      54
   3  -3  -1     190      50
   4  -3   1   17379     500
   4   3  -1   17169     469
   4   3  -1   16604     497
  -4   3   1   16860     489
   4  -3  -1   17542     472
   4   3   1   15163     463
  -4   3  -1   17084     495
   4   3   1   17144     500
   4  -3  -1   17190     497
   5  -3   1     344      79
   5  -3   1     546      45
   5   3  -1     564      75
  -5   3   1     559      86
   5  -3  -1     425      79
   5   3   1     589      47
  -6  -3  -1   46965    1296
   6  -3   1   49669    1302
   6   3  -1   47457    1220
  -6   3   1   47484    1289
   6  -3   1   48094    1223
   6   3  -1   50060    1309
   6   3   1   48067    1220
  -6   3  -1   47044    1292
   6  -3  -1   49320    1224
   6  -3  -1   48704    1296
   7  -3   1       3      86
   7  -3   1      50      78
  -7   3   1      56      96
  -7  -3  -1      45      97
   7   3  -1      19      81
   7  -3  -1      47      74
  -7   3  -1      30     100
   7  -3  -1      12      90
   7   3   1      36      82
  -8  -3  -1    6832     322
  -8   3   1    7251     310
   8  -3   1    6941     303
   8   3  -1    6808     290
   8   3   1    7339     297
  -8   3  -1    7054     322
  -8  -3   1    6879     315
   8  -3  -1    6887     303
   0   4  -1      69    1054
   0  -4  -1     310    1069
   0   4   1      77    1005
   0  -4   1     180    1065
   1  -4   1    8051     265
  -1  -4  -1    8452     253
  -1   4   1    8130     251
   1   4  -1    7786     257
  -1   4  -1    7501     251
   1  -4  -1    9045     267
   1   4   1    8317     253
   1   4   1    8382     252
   2   4  -1    2726     100
   2   4  -1    2893     100
   2   4   1    2316     101
   2   4   1    2791     101
   3   4  -1   88021    2226
   3   4  -1   88089    2095
   3  -4   1   89059    2244
  -3   4   1   88610    2214
   3  -4  -1   85602    2240
   3   4   1   89480    2224
   3  -4  -1   90549    2099
   3   4   1   89207    2095
  -3   4  -1   87648    2217
   4  -4   1      30      36
   4   4  -1      80      64
  -4   4   1      54      61
   4  -4   1      99      59
   4   4  -1      78      53
   4   4   1      42      40
   4   4   1      97      65
   4  -4  -1      75      65
  -4   4  -1      92      71
   4  -4  -1      88      55
   5  -4   1     961     128
   5  -4   1    1041     111
  -5   4   1    1284     135
   5   4  -1    1105     136
   5   4  -1    1490     119
   5  -4  -1    1060     138
   5  -4  -1     792      96
  -5   4  -1    1130     145
   5   4   1    1408     110
   6   4  -1       3      90
   6   4  -1      37      75
   6  -4   1       1      85
  -6   4   1       0      87
  -6  -4  -1      87      91
   6  -4   1       1      78
   6  -4  -1       0      71
   6  -4  -1      11      85
  -6   4  -1      11      94
   6   4   1       0      72
   7  -4   1    1675     176
  -7  -4  -1    1969     187
  -7   4   1    2008     177
   7   4  -1    1694     166
   7  -4   1    1244     169
   7   4   1    1732     169
   7  -4  -1    1772     179
   7  -4  -1    1532     170
  -7   4  -1    1862     185
   8   4  -1     792     173
   8  -4   1     515     135
   8  -4  -1     717     137
   8   4   1     693     125
   0   5  -1   53141     592
   0  -5   1   52184     602
   0   5  -1   51977     576
   0  -5  -1   45661     606
   0   5   1   50780     581
   1   5  -1     172      42
  -1   5   1     165      55
   1  -5   1     219      46
   1   5  -1     222      57
  -1  -5  -1     235      52
   1  -5  -1     157      48
  -1   5  -1     269      49
   1   5   1     166      56
  -1   5  -1     212      54
   1   5   1     244      48
  -2   5   1    9047     314
   2  -5   1    8928     330
  -2   5   1    8846     303
   2   5  -1    8352     320
   2   5  -1    8656     310
   2   5   1    8377     317
  -2   5  -1    8981     313
   2   5   1    9103     312
   2  -5  -1    8950     330
   3   5  -1    4863     177
  -3   5   1    4702     169
   3   5  -1    4585     179
   3  -5  -1    5108     188
  -3   5  -1    4940     182
   3   5   1    4733     176
   3   5   1    4562     181
   3  -5  -1    4328     183
   4  -5   1   34038     903
   4   5  -1   34862     895
  -4   5   1   33066     877
   4   5  -1   32302     838
   4  -5  -1   33970     846
   4  -5  -1   32786     899
  -4   5  -1   33115     883
   4   5   1   33518     895
  -5   5   1       3      78
   5   5  -1      42      71
   5   5  -1      19      84
   5  -5   1       0      81
   5  -5  -1       3      82
   5   5   1     148      69
   5   5   1       3      90
   5  -5  -1       3      70
  -5   5  -1      54      87
   6  -5   1   69604    1707
   6   5  -1   67721    1703
   6  -5   1   70837    1827
  -6  -5  -1   67924    1808
   6   5  -1   70080    1819
   6  -5  -1   69993    1706
   6  -5  -1   71573    1824
   6   5   1   69238    1705
  -6   5  -1   66701    1797
   7   5  -1     546     107
   7  -5   1     727     116
   7  -5   1     574     111
   7  -5  -1     541     116
   7  -5  -1     407     108
   7   5   1     494     105
   8  -5   1   12182     458
   0   6  -1    3080      99
   0   6  -1    3407      53
   0  -6  -1    3511      73
   0   6   1    3157     101
   0  -6   1    3340      67
   1   6  -1   31119     774
  -1   6   1   31154     748
   1  -6   1   29993     787
   1   6  -1   32111     749
  -1  -6  -1   29880     775
   1   6   1   29567     767
   1   6   1   31913     748
   1  -6  -1   31595     791
  -1   6  -1   30037     746
  -1   6  -1   30721     764
  -2   6   1    8452     302
   2  -6   1    8825     311
   2   6  -1    8029     297
   2   6  -1    8528     297
  -2   6  -1    8621     299
   2   6   1    9137     294
   2  -6  -1    8494     313
  -2   6  -1    8621     286
   2   6   1   10030     298
   3   6  -1    1666     117
  -3   6   1     762     106
   3   6  -1    1533     110
   3   6   1    1483     114
  -3   6  -1     767     121
   4  -6   1    1384     118
   4   6  -1    1491     137
   4   6  -1    1559     119
   4   6   1    1801     139
  -4   6  -1    1931     154
   4  -6  -1    1798     135
   4  -6  -1    1945     152
   5   6  -1   10573     343
   5  -6   1   10534     354
   5   6  -1   11028     369
   5  -6   1    9912     373
   5  -6  -1    9939     368
   5   6   1   10793     376
   5   6   1   10331     344
   5  -6  -1   10302     354
   6   6  -1     383     118
  -6  -6  -1     519     107
   6  -6   1     346     105
   6  -6   1     529     119
   6   6  -1     511      95
   6  -6  -1     456     117
   6  -6  -1     453     101
   6   6   1     365      96
   7   6  -1    4840     237
  -7  -6  -1    5425     271
   7  -6   1    4875     267
   7  -6   1    4945     259
   7  -6  -1    4863     260
   7  -6  -1    4787     262
   7   6   1    4323     235
   8  -6   1    2069     238
   8  -6  -1    2232     226
   0   7  -1     111     207
   0  -7   1      77     224
   0   7   1      97     243
   0   7  -1      78     243
   0  -7  -1      96     228
  -1  -7  -1     106      46
  -1   7   1     295      82
   1   7  -1     263      74
   1  -7   1     234      55
   1   7  -1     170      44
  -1   7  -1     257      37
   1  -7  -1     150      56
   1   7   1     151      40
   1   7   1     162      75
  -1   7  -1     279      78
  -2   7   1   23098     651
   2   7  -1   22180     669
   2   7  -1   22613     649
   2  -7   1   22352     686
   2  -7  -1   23229     688
  -2   7  -1   22149     648
   2   7   1   22802     650
   2   7   1   21778     666
   3   7  -1    8293     223
  -3   7   1    7686     243
   4  -7   1   13017     388
   4   7  -1   13169     381
   4   7  -1   12831     362
   4   7   1   12513     381
   4   7   1   12522     364
   4  -7  -1   12692     389
   5   7  -1    1093     154
   5   7  -1    1213     169
   5   7   1    1273     157
   5  -7  -1    1154     188
   6   7  -1   25534     718
   6   7  -1   27194     777
  -6  -7  -1   25886     759
   6  -7   1   26281     777
   6  -7   1   27126     733
   6   7   1   25646     720
   6  -7  -1   26464     733
   6  -7  -1   26109     777
   7  -7   1      21     109
   7  -7   1      98     124
   7   7  -1     115      94
   7  -7  -1      35     127
   7   7   1      36      93
   7  -7  -1      63     107
   0  -8   1      86     174
   0   8   1     102     205
   0   8  -1      86     198
   0  -8  -1      73     178
   1  -8   1    7629     260
   1   8  -1    7170     260
  -1   8   1    7044     271
  -1  -8  -1    7354     246
   1   8  -1    7521     236
   1  -8  -1    7775     264
  -1  -8   1    7556     241
   1   8   1    7091     234
  -2   8   1     509      92
   2  -8   1     608      74
   2   8  -1     813      92
   2   8   1    1108      91
   2  -8  -1    1058     117
   3   8  -1   27665     728
   3   8  -1   28133     703
  -3   8   1   23731     713
   3  -8   1   23268     747
   3   8   1   24167     693
   3  -8  -1   22965     748
   3   8   1   28203     727
   4  -8   1     517      86
   4   8  -1     455      93
  -4   8   1     779     123
   4   8  -1     524      96
   4  -8  -1     646      97
  -4   8  -1     816     121
   4   8   1     490      95
   4   8   1     525      98
   5   8  -1    5472     245
   5   8  -1    5376     233
   5  -8   1    4430     251
   5  -8  -1    5389     254
   5   8   1    4981     226
   6   8  -1       1     115
   6  -8   1       0     116
   6   8  -1      78      89
   6  -8   1      46     107
   6  -8  -1       5     100
   6  -8  -1       5     122
   6   8   1       2      89
   7  -8   1     351     128
   7  -8   1     267     151
   7   8  -1     398     108
   7  -8  -1     124     144
   7  -8  -1     508     127
   7   8   1     285     112
   0  -9   1   65829    1870
   0  -9  -1   66395    1874
  -1   9   1     860     108
   2   9  -1   49983    1024
   2  -9   1   51310    1089
  -2   9   1   52242    1036
   2   9  -1   49749    1059
   2  -9  -1   49448    1088
   2   9   1   50304    1026
  -2   9  -1   48857    1029
   3   9  -1       3      84
  -3   9   1     161     110
   3  -9   1      23      83
   3   9  -1     152      69
   3   9   1      34      73
   3   9   1      46      87
  -3   9  -1     135     108
   3  -9  -1       7      84
   4   9  -1    2000     173
   4   9  -1    2400     164
  -4   9   1    2533     204
   4  -9   1    2608     186
   4  -9  -1    2488     182
   4   9   1    1986     176
   4   9   1    2366     169
  -4   9  -1    2436     211
   5  -9   1    1152     209
   5   9  -1    1701     186
   5   9  -1    1581     193
   5   9   1    1694     187
  -5   9  -1    2359     237
   5  -9  -1    1606     207
   6  -9   1     239     123
   6   9  -1     330     101
   6   9  -1       6     130
   6   9   1     284     106
   6  -9  -1     248     123
  -7  -9  -1    1147     215
   0 -10  -1   14510     682
   0  10  -1   16049     672
   0 -10   1   15307     678
   0  10   1   14322     668
   1 -10   1    8424     234
  -1  10   1    8141     268
   1  10  -1    7936     254
   1  10   1    7886     247
   1 -10  -1    8341     235
  -1  10  -1    8626     273
   2  10  -1      90     102
  -2  10   1     308     130
   2 -10  -1     130      90
  -2  10  -1     122     122
   2  10   1     122     101
   3  10  -1    2665     187
  -3  10   1    2734     223
   3 -10   1    2835     196
  -3  10  -1    2876     227
   3 -10  -1    2648     196
   3  10   1    2815     194
   4 -10   1     162     110
  -4  10   1     163     134
   4  10  -1      38     102
  -4  10  -1     283     136
   4 -10  -1      67     105
   4  10   1      33     101
   5  10  -1    4742     255
  -5  10   1    4838     290
   5  10  -1    4600     268
   5 -10   1    4283     293
   5 -10  -1    4270     282
  -5  10  -1    4727     281
   5  10   1    5058     263
  -6 -10  -1    6301     275
   6  10  -1    4593     294
   6  10  -1    5430     264
  -6  10   1    5034     306
   6 -10   1    5209     304
  -6  10  -1    5445     311
   6  10   1    5333     265
   6 -10  -1    5202     301
   0 -11  -1   23843     769
   0  11   1   24723     761
   0  11  -1   25559     757
  -1  11   1    5113     290
   1  11  -1    4931     262
   1 -11   1    4895     242
   1 -11  -1    5087     247
  -1  11  -1    4907     281
   1  11   1    5114     260
   2 -11   1   27912     692
  -2  11   1   28947     680
   2  11  -1   27680     663
   2  11   1   26808     657
   2 -11  -1   27391     691
  -2  11  -1   29110     678
  -3  11   1      14     137
   3 -11   1      92      98
   3  11  -1      27     102
  -3  11  -1      17     135
   3  11   1      15     104
   3 -11  -1      52      98
  -4  11   1    2406     235
   4  11  -1    2060     206
   4 -11   1    2468     213
  -4  11  -1    2598     239
   4 -11  -1    2227     212
   4  11   1    1984     199
   5  11  -1    6268     275
   5 -11   1    5873     299
  -5  11   1    5423     291
  -5  11  -1    6135     296
   5 -11  -1    5234     285
   5  11   1    5634     269
   0  12   1    3991     159
   0  12  -1    3675     155
  -1  12   1    6188     348
   1  12  -1    6214     322
   1 -12   1    5529     298
   1  12   1    6006     313
  -1  12  -1    5551     338
   1 -12  -1    5963     302
   2 -12   1     517     116
   2  12  -1     556     129
  -2  12   1     614     163
   2  12   1     602     132
   2 -12  -1     720     119
  -2  12  -1     384     159
   3  12  -1     705     128
  -3  12   1     822     161
   3 -12   1     817     123
   3 -12  -1     789     122
  -3  12  -1     761     163
   3  12   1     646     127
   4 -12   1    1271     199
   4  12  -1     827     140
  -4  12   1    1312     180
   4 -12  -1     871     142
  -4  12  -1    1236     175
   4  12   1     928     145
   5 -12   1    4020     292
   5  12  -1    4517     277
  -5  12   1    4239     300
  -5  12  -1    4198     304
   5 -12  -1    4276     279
   5  12   1    4064     268
   0  13  -1    5368     183
   0  13   1    5673     175
   1  13  -1      29     136
  -1  13   1       5     155
  -1  13  -1       5     156
   1  13   1       4     130
  -2  13   1    3910     309
   2  13  -1    3846     266
   2 -13   1    4048     260
   2 -13  -1    4105     262
  -2  13  -1    3846     309
   2  13   1    4240     274
  -3  13   1     681     177
   3 -13   1     701     129
   3  13  -1     542     138
  -3  13  -1     507     178
   3  13   1     603     139
   3 -13  -1     636     131
   4 -13   1    8696     379
   4  13  -1    7975     358
  -4  13   1    8094     388
   4  13   1    7941     353
  -4  13  -1    8273     396
   4 -13  -1    8161     374
   0  14   1     531     171
   0  14  -1     592     173
   1  14  -1       0     138
   1  14   1       0     139
  -1  14  -1       2     165
   2  14  -1     104     140
  -2  14   1      41     183
  -2  14  -1     108     180
   2  14   1     177     145
  -3  14   1     481     209
   3  14  -1     593     159
   3 -14   1     910     154
  -3  14  -1     491     209
   3 -14  -1     613     146
   3  14   1     711     168
   0  15  -1    5629     347
   0  15   1    5642     358
  -1  15   1     389     215
   0   0   2   36852   11614
   0   0  -2   62882   11696
   1   0  -2     804      44
   1   0  -2     722      39
   1   0   2     582      42
   1   0   2     596      48
   1   0  -2     742      40
  -2   0  -2    3403      73
   2   0  -2    3369      65
   2   0   2    3663      71
   2   0   2    3605      72
   2   0  -2    3066      66
   3   0  -2     226      39
  -3   0  -2     152      47
   3   0   2     286      43
   3   0  -2     220      37
   3   0  -2     165      32
   4   0  -2   27617     675
   4   0   2   26366     712
  -4   0  -2   25575     719
   4   0  -2   26515     702
   4   0  -2   26742     714
   4   0   2   25744     675
  -5   0  -2     117      76
   5   0  -2      83      62
   5   0   2      84      62
   5   0   2     124      58
   5   0  -2     148      48
   5   0  -2     193      69
   6   0  -2    8519     290
   6   0   2    8831     296
   6   0   2    8725     294
   6   0  -2    8605     311
  -6   0  -2    8544     322
  -7   0   2      53      84
   7   0   2      13      83
  -7   0  -2      80     104
   7   0  -2      32      80
  -8   0  -2   21505     686
  -8   0   2   22528     685
   8   0   2   22422     646
   8   0  -2   22325     645
   0  -1  -2    7499    1277
   0  -1   2    6938    1218
   0   1   2    7380    1249
   0   1  -2    7278    1229
   0   1  -2    8431    1134
   1   1  -2   43459    1060
   1  -1   2   43138    1039
  -1  -1  -2   41895    1130
  -1   1  -2   41292    1125
   1  -1  -2   44131    1122
   1  -1  -2   43099    1050
   1  -1  -2   43820    1107
   1   1   2   42776    1109
   1   1   2   42391    1041
   3  -1   2    2617     105
   3   1  -2    2880      99
   3  -1   2    2819     103
   3   1  -2    2751     104
   3   1   2    2448      96
   3   1   2    2517     103
  -3   1  -2    2640     118
   3  -1  -2    2653     103
   3  -1  -2    2436      92
   4   1  -2       1      48
  -4  -1  -2       5      46
   4  -1   2       7      51
   4   1  -2       1      46
   4  -1   2       7      43
   4   1  -2       1      29
   4  -1  -2       0      47
   4  -1  -2       0      36
  -4   1  -2       7      58
   4   1   2       5      49
   4   1   2       5      40
   4  -1  -2       0      46
   5   1  -2   14248     386
   5   1  -2   13892     408
   5   1  -2   14788     386
   5  -1   2   13615     405
  -5   1  -2   13432     420
   5   1   2   13316     383
   5  -1  -2   13935     408
   5   1   2   14915     394
   5  -1  -2   13838     386
   5  -1  -2   13779     395
   6   1  -2     646      86
   6  -1   2     492      82
   6  -1   2     425      85
   6   1  -2     564      96
  -6  -1  -2     508     103
   6  -1  -2     413      85
   6  -1  -2     426      72
  -6   1  -2     551     108
   6   1   2     483      85
   7  -1   2      51      86
   7   1  -2     125      85
  -7  -1  -2     113     108
  -7   1   2     148     100
   7  -1  -2      64      85
  -7   1  -2     145     110
   7   1   2      68      87
   8   1  -2     140      96
  -8  -1  -2     163     122
   8  -1   2      62     105
  -8   1   2     388     104
  -8   1  -2      67     125
   8  -1  -2     107      99
   8   1   2     110      99
  -8  -1   2     172     105
   0  -2  -2  819865   16515
   0   2  -2  797955   15910
   0  -2   2  853766   16888
   0  -2  -2  797313   16993
   0   2   2  805170   16032
   0   2  -2  894888   16996
   1  -2   2   11859     323
  -1  -2  -2   11334     340
   1   2  -2   11136     321
   1   2  -2   11168     343
   1  -2   2   11150     344
   1   2   2   11659     322
   1  -2  -2   11356     331
  -1   2  -2   11607     342
   1  -2  -2   12089     322
   1   2   2   11408     340
   1  -2  -2   11640     345
   2   2  -2   73688    2065
   2  -2   2   73248    2052
   2   2   2   75899    2184
   2  -2  -2   72183    2177
   2  -2  -2   74231    2059
   2  -2  -2   75273    2210
   2   2   2   71169    2038
  -2   2  -2   72129    2210
   3  -2   2    1421      97
  -3  -2  -2    1279      97
   3  -2   2     998      93
   3   2  -2    1566      84
   3   2   2    1419      89
   3  -2  -2    1097      89
   3   2   2    1463      82
  -3   2  -2    1159     100
   3  -2  -2    1284      87
  -4  -2  -2   41514    1126
   4   2  -2   43413    1058
   4  -2   2   43901    1060
   4   2  -2   41949    1122
   4  -2   2   43607    1129
   4  -2  -2   44395    1124
   4  -2  -2   44424    1118
   4  -2  -2   44563    1058
  -4   2  -2   43769    1126
   4   2   2   42536    1059
   5  -2   2    2592     148
   5  -2   2    2215     142
   5   2  -2    2124     136
   5   2  -2    2681     135
   5  -2  -2    2542     143
   5  -2  -2    2208     139
   5   2   2    2431     139
  -5   2  -2    2166     167
   5   2   2    2488     124
   6  -2   2    3296     189
  -6  -2  -2    3226     200
   6  -2   2    3297     191
   6   2  -2    3245     197
  -6   2   2    3372     193
   6   2  -2    3388     178
   6  -2  -2    3165     184
   6   2   2    3561     185
   6  -2  -2    3333     176
  -6   2  -2    3638     212
   7  -2   2     237      99
  -7  -2  -2     496     113
   7  -2   2     277     102
   7   2  -2     587     132
   7  -2  -2     460     100
   7   2   2     494      96
  -7   2  -2     320     119
  -8   2   2    2381     211
  -8  -2  -2    1882     218
   8  -2   2    1881     200
   8   2  -2    2026     183
   8  -2  -2    1777     201
  -8  -2   2    2257     207
  -8   2  -2    2055     220
   8   2   2    2005     191
   0   3  -2   47907    9993
   0   3   2   42478    9537
   0  -3  -2   48720    9798
   0  -3   2   49664    9909
   0   3  -2   35119    9816
   1  -3   2   21653     703
   1   3  -2   21495     700
  -1  -3  -2   21781     695
  -1   3   2   21140     658
   1   3  -2   20352     658
  -1   3  -2   20818     658
  -1   3  -2   21358     695
   1   3   2   20281     697
   1   3   2   20920     660
   2  -3   2     858     117
   2  -3  -2     789     101
   2   3   2     523     112
   2   3   2     603     107
  -2   3  -2     831     123
   3   3  -2  156387    3777
   3   3  -2  151804    4051
   3  -3   2  152819    4028
   3  -3   2  149197    3756
   3  -3  -2  155887    3771
   3   3   2  162493    4018
  -3   3  -2  151144    4017
   3   3   2  154636    3740
   3  -3  -2  155131    4034
   4   3  -2     799      90
   4  -3   2     675      99
   4   3  -2     617      90
  -4  -3  -2     588      80
   4  -3   2     627     103
  -4   3  -2     609      88
   4  -3  -2     566      98
   4   3   2     645      92
   4  -3  -2     655      90
  -5   3   2   13631     390
   5   3  -2   13499     373
  -5  -3  -2   13159     401
   5  -3   2   14261     406
   5  -3   2   13534     380
   5  -3  -2   13861     380
   5   3   2   13838     375
  -5   3  -2   12850     405
   5  -3  -2   12925     395
   6   3  -2    3914     210
   6  -3   2    3964     202
  -6  -3  -2    3941     217
   6   3  -2    4149     190
  -6   3   2    3508     202
   6  -3   2    3819     207
   6   3   2    3994     196
  -6   3  -2    4130     218
   6  -3  -2    3773     192
   6  -3  -2    3801     201
   7  -3   2      58      92
  -7   3   2     170      97
   7   3  -2     100      80
   7  -3   2      22      84
  -7  -3  -2     108     103
   7   3   2      77      89
   7  -3  -2      22      79
  -7   3  -2     150     110
   7  -3  -2      78      97
  -8  -3  -2      54     118
   8  -3   2       2     105
   8   3  -2      28      91
  -8  -3   2      78     104
  -8   3  -2      71     124
   8   3   2      87     101
   8  -3  -2       7     108
   0   4  -2   61905    8923
   0   4   2   76656    8172
   0  -4   2   76484    8266
   0   4  -2   61653    8221
   0  -4  -2   91262    8298
   1  -4   2    1978      82
   1   4  -2    1785      75
  -1  -4  -2    2016      75
  -1   4   2    1624      85
   1  -4  -2    1852      84
  -1   4  -2    1924      78
   1   4   2    2018      88
   2   4  -2    1955     109
  -2   4   2    1968      91
   2  -4   2    1646     115
   2   4   2    1700     110
   2  -4  -2    2014     117
   2   4   2    1999     109
   2   4   2    1907     101
   2  -4  -2    2045     110
   3  -4   2    2049     107
   3   4  -2    1629     100
   3  -4   2    1898     116
   3   4  -2    1703      96
  -3   4   2    1749      92
   3  -4  -2    1697     111
   3  -4  -2    1468     109
  -3   4  -2    1909     120
   3   4   2    1917     101
   4   4  -2   34934     864
   4  -4   2   33704     864
   4   4  -2   34623     919
  -4   4   2   34537     902
   4  -4   2   36295     930
   4   4   2   34937     865
   4  -4  -2   36026     923
   4  -4  -2   36181     867
  -4   4  -2   35277     914
   5   4  -2     898     113
  -5  -4  -2     593     102
   5  -4   2     701      98
  -5   4   2     782     120
   5  -4   2     617     100
   5   4  -2     844     102
   5   4   2     894     117
  -5   4  -2     528     107
   5  -4  -2     627      95
   6   4  -2   70449    1845
  -6   4   2   69237    1823
   6  -4   2   72589    1853
   6   4  -2   68063    1728
   6  -4   2   70630    1732
  -6  -4  -2   66619    1835
  -6   4  -2   70375    1834
   6  -4  -2   72561    1845
   6   4   2   69391    1731
   6  -4  -2   71694    1732
   7  -4   2     131      98
   7   4  -2      10     109
  -7  -4  -2     230     104
   7  -4   2      89      92
   7   4  -2     376      90
  -7   4  -2     316     117
   7  -4  -2      94      84
   7  -4  -2     304     100
   7   4   2      96      88
   8  -4   2   24357     726
   8   4  -2   24630     710
   8  -4   2   25505     774
  -8  -4  -2   24431     791
  -8  -4   2   25323     790
   8  -4  -2   24934     722
   8   4   2   25524     728
   0  -5  -2    2583    1017
   0  -5   2    2812    1010
   0   5  -2    2476    1002
   0   5  -2    1987     955
   0   5   2    2314     958
  -1   5   2   18069     502
   1  -5   2   18965     531
   1   5  -2   19121     524
  -1  -5  -2   18776     522
   1   5  -2   19232     504
   1   5   2   18570     503
  -1   5  -2   18003     501
  -1   5  -2   18355     516
   1   5   2   18784     514
   1  -5  -2   19151     535
   2   5   2    2657     117
   3  -5   2      76      71
   3   5   2      22      61
   3  -5  -2      89      67
   3  -5  -2      88      66
  -3   5  -2      79      71
   4   5  -2     666     109
   4   5  -2     849     103
  -4   5   2     570     109
   4  -5   2     554     121
   4  -5   2     604     119
   4  -5  -2     714     114
   4   5   2     712     108
  -4   5  -2     754     140
   4  -5  -2     726     127
   5  -5   2    8387     304
   5   5  -2    8349     293
   5  -5   2    8016     324
  -5  -5  -2    7876     316
  -5   5   2    8521     305
   5   5  -2    8496     320
   5  -5  -2    8806     304
   5   5   2    8471     296
  -5   5  -2    8048     318
   5  -5  -2    8340     317
   6  -5   2     566     112
   6  -5   2     240     103
  -6  -5  -2     596     112
   6   5  -2     528      92
   6   5  -2     366     112
   6   5   2     511      97
   6  -5  -2     502     111
   6  -5  -2     555     100
  -6   5  -2     427     118
   7   5  -2     862     150
   7   5  -2     538     143
   7  -5   2     795     129
   7  -5   2     641     120
   7  -5  -2    1010     177
   7   5   2     796     159
   7  -5  -2     617     113
   8  -5   2      13     112
   0   6  -2    1560      57
   0  -6  -2    1272      54
   0  -6   2    1523      65
   1   6  -2     999     102
  -1   6   2    1167     109
   1  -6   2    1021      84
  -1  -6  -2     963      73
   1   6  -2    1042      74
  -1   6  -2     907      67
  -1   6  -2    1081     105
   1   6   2     986      64
   1  -6  -2     894      89
   1   6   2     869     100
   2   6  -2   50411     952
   2   6  -2   49234    1000
  -2   6   2   51312     955
   2  -6   2   51875    1016
  -2   6  -2   52373     954
   2   6   2   51113     996
   2   6   2   51431     953
  -2   6  -2   48918     990
   2  -6  -2   51458    1018
   3  -6   2     356      65
   3   6  -2     335      70
   3   6  -2     309      69
   3   6   2     455      73
  -3   6  -2     434      79
   3   6   2     387      71
   4   6  -2    8741     283
   4  -6   2    9344     302
   4   6  -2    8895     302
   4  -6  -2    9420     309
   4   6   2    9021     284
   4  -6  -2    9413     300
  -4   6  -2    9144     303
   5   6  -2     270      82
  -5  -6  -2     269      94
   5  -6   2     174      99
   5  -6  -2     264      90
   5   6   2     324      88
   5  -6  -2     289      96
   6  -6   2   37054     976
   6   6  -2   36737    1038
   6   6  -2   36425     971
   6  -6   2   37936    1047
  -6  -6  -2   35756    1028
   6  -6  -2   38095     975
   6   6   2   35931     971
   6  -6  -2   38171    1040
   7   6  -2     195     130
   7  -6   2     579     130
   7   6  -2     457      98
   7  -6   2     302     114
   7   6   2     435     100
   7  -6  -2     488     126
   7  -6  -2     416     109
   8  -6   2    1653     248
   8  -6  -2    2053     215
   0  -7  -2    3241     471
   0   7  -2    3565     456
   0  -7   2    3115     463
   0   7   2    3364     461
   0   7  -2    3273     459
   1   7  -2   17305     486
   1   7  -2   16739     488
  -1   7   2   16955     487
  -1  -7  -2   16296     491
   1  -7   2   16485     501
   1  -7  -2   16771     506
   1   7   2   17141     486
  -1   7  -2   16500     479
  -1   7  -2   16540     485
   2   7  -2    5234     120
  -2   7   2    4975     157
   2   7  -2    5488     142
   2   7   2    4069     136
   2  -7  -2    4953     143
   2   7   2    4437     119
  -3   7   2    1358     157
   3  -7   2    1397     129
   3   7  -2    1462     126
   3   7  -2    1092     114
   3   7   2    1097     120
   3   7   2    1446     124
  -3   7  -2    1432     154
   4   7  -2     541      90
   4  -7   2     493      88
   4   7  -2     544      85
   4  -7  -2     480      91
   4   7   2     505      89
   5   7  -2    6635     243
   5   7  -2    7209     265
   5  -7   2    5614     270
  -5  -7  -2    6566     257
   5  -7   2    7286     275
   5  -7  -2    6411     266
   5   7   2    6567     248
   5  -7  -2    6553     264
   6  -7   2     647     121
   6  -7   2     411     123
   6   7  -2     339     121
   6   7  -2     490     102
   6  -7  -2     550     124
   6   7   2     477     101
   6  -7  -2     373     103
   7   7  -2    2522     264
   7   7  -2    3294     214
   7  -7   2    3407     251
   7  -7   2    3497     245
   7   7   2    3438     211
   7  -7  -2    3107     251
   7  -7  -2    3492     244
   0  -8  -2   32019    1226
   0  -8   2   30608    1218
   0   8  -2   30840    1201
   0   8  -2   32813    1167
   0   8   2   31558    1164
  -1   8   2    3558     184
  -1  -8  -2    3675     139
   1  -8   2    3678     149
   1   8  -2    3446     176
   1   8  -2    3514     128
   1   8   2    3432     168
   1  -8  -2    3625     155
  -1   8  -2    3123     174
   2  -8   2   31709     883
   2   8  -2   32003     864
   2   8  -2   33452     836
  -2   8   2   33263     839
   2  -8  -2   32280     883
   2   8   2   32577     857
   2   8   2   32758     834
  -2   8  -2   32244     838
  -3   8   2   12057     401
   3  -8   2   12168     409
   3   8  -2   12607     387
   3   8  -2   12381     392
  -3   8  -2   12423     399
   3  -8  -2   12160     410
   3   8   2   13490     389
  -4   8   2    7241     302
   4   8  -2    7403     283
   4  -8   2    7499     298
   4   8  -2    7494     280
   4   8   2    7271     284
  -4   8  -2    7308     304
   4  -8  -2    7029     295
   5  -8   2    3473     252
   5   8  -2    5081     249
  -5  -8  -2    5583     234
   5   8  -2    4457     227
   5  -8  -2    5171     251
   5   8   2    5376     237
   6  -8   2    5384     280
  -6  -8  -2    5623     265
   6  -8   2    5026     285
   6   8  -2    5265     246
   6   8  -2    5270     275
   6  -8  -2    5019     277
   6  -8  -2    5100     273
   6   8   2    5099     250
   7  -8   2      68     123
   7   8  -2      90      98
   7   8   2      19      98
   7  -8  -2      55     118
   0  -9  -2   24559     323
   0   9   2   24998     340
   0   9  -2   24865     334
   0  -9   2   24095     314
  -1  -9  -2    2312     161
   1  -9   2    2499     169
  -1   9   2    2488     215
   1   9  -2    2384     195
   1  -9  -2    2464     178
  -1   9  -2    2450     203
   1   9   2    2380     200
   2  -9   2    2313     179
  -2   9   2    2593     213
   2   9  -2    2339     185
   2   9  -2    1995     153
   2   9   2    2547     191
  -2   9  -2    2558     212
   2  -9  -2    2326     182
   3   9  -2    9007     289
  -3   9   2    7782     308
   3   9  -2    8544     275
   3  -9   2    7474     300
   3  -9  -2    7567     298
  -3   9  -2    7984     310
   3   9   2    8531     291
  -4   9   2     418     132
   4  -9   2     277     108
   4   9  -2     278     105
   4   9  -2     444      99
  -4   9  -2     310     130
   4  -9  -2     274     108
   4   9   2     265     107
   5   9  -2    2383     197
  -5  -9  -2    2790     186
  -5   9   2    2992     237
   5   9  -2    2129     188
   5  -9  -2    2021     204
  -5   9  -2    2609     241
   5   9   2    2223     196
  -6  -9  -2    7263     305
   6   9  -2    6642     292
   6   9  -2    6660     321
  -6   9   2    7113     332
   6  -9   2    6999     333
   6  -9  -2    6603     326
   6   9   2    6765     296
  -7  -9  -2    2052     231
   0 -10  -2   18465     310
   0  10   2   19023     333
   0 -10   2   17597     302
   0  10  -2   19879     340
   1 -10   2    1845     135
   1  10  -2    1729     177
  -1  10   2    2019     195
   1 -10  -2    1954     148
   1  10   2    1670     172
  -1  10  -2    1927     200
   2 -10   2   36701    1104
   2  10  -2   36845    1044
  -2  10   2   39117    1055
  -2  10  -2   38347    1054
   2  10   2   37110    1045
   2 -10  -2   37544    1107
   3 -10   2      48      94
   3  10  -2      48      95
  -3  10   2     132     127
  -3  10  -2     120     128
   3  10   2      51      99
   3 -10  -2      49      92
   4  10  -2    1258     174
  -4  10   2    1421     211
   4 -10   2    1359     188
   4  10  -2    1517     155
  -4  10  -2    1406     212
   4 -10  -2    1222     177
   4  10   2    1305     144
  -5  10   2    2115     239
   5  10  -2    2297     204
   5  10  -2    2702     211
   5 -10   2    1705     234
   5  10   2    2134     209
   5 -10  -2    1832     220
  -5  10  -2    2829     251
  -6  10   2    5060     309
   6  10  -2    4925     262
   6  10  -2    4602     290
   6 -10   2    5308     304
  -6  10  -2    5340     306
   6 -10  -2    5128     294
   6  10   2    5226     266
   0 -11  -2    2205      91
   0  11  -2    2200     133
   0  11   2    2368     137
   1 -11   2    4375     192
   1  11  -2    4005     226
  -1  11   2    4643     249
  -1  11  -2    4847     242
   1 -11  -2    4337     200
   1  11   2    3903     224
  -2  11   2     760     142
   2  11  -2     699     117
   2 -11   2     547     100
   2 -11  -2     719     106
  -2  11  -2     541     140
   2  11   2     840     121
   3 -11   2       2     102
  -3  11   2       2     143
   3  11  -2      29     101
   3 -11  -2      38      98
   3  11   2      34     104
  -3  11  -2       4     143
   4 -11   2     552     139
   4  11  -2     553     132
  -4  11   2     617     161
  -4  11  -2     541     159
   4  11   2     459     134
   4 -11  -2     351     128
   5 -11   2    1613     242
  -5  11   2    2356     251
   5  11  -2    2027     218
   5 -11  -2    1839     217
  -5  11  -2    2398     253
   5  11   2    2099     223
   0  12  -2   13818     600
   0  12   2   14299     598
  -1  12   2    3635     263
   1 -12   2    4002     198
   1  12  -2    3575     234
   1 -12  -2    4008     202
   1  12   2    3731     233
  -1  12  -2    3817     267
   2 -12   2   10459     342
  -2  12   2   10925     378
   2  12  -2   10612     336
   2  12   2   10706     344
   2 -12  -2   10592     343
  -2  12  -2   11263     380
   3  12  -2     466     135
   3 -12   2     647     127
  -3  12   2     629     169
  -3  12  -2     490     167
   3 -12  -2     433     125
   3  12   2     520     135
   4 -12   2    7442     321
  -4  12   2    7277     334
   4  12  -2    6844     300
   4  12   2    7139     302
  -4  12  -2    6979     332
   4 -12  -2    6925     313
   5 -12   2    2004     258
  -5  12   2    1997     273
   5  12  -2    2068     232
  -5  12  -2    2212     286
   5  12   2    2295     259
   5 -12  -2    2026     243
   0  13  -2    5777     558
   0  13   2    6334     554
  -1  13   2     619     166
   1  13  -2     777     145
   1 -13  -2    1021     113
  -1  13  -2     381     164
   1  13   2     780     145
   2 -13   2    2410     206
   2  13  -2    2465     230
  -2  13   2    2507     283
  -2  13  -2    2003     281
   2 -13  -2    2615     215
   2  13   2    2573     232
   3 -13   2     725     135
   3  13  -2     500     140
  -3  13   2     434     180
  -3  13  -2     529     182
   3  13   2     507     140
   3 -13  -2     328     132
  -4  13   2    1474     214
   4  13  -2    1510     224
   4 -13   2    1765     230
  -4  13  -2    1376     213
   4 -13  -2    1554     227
   4  13   2    1620     228
   0  14  -2    7500     552
   0  14   2    7271     549
  -1  14   2    1260     200
   1  14  -2    1609     173
  -1  14  -2    1367     199
   1  14   2    1525     178
  -2  14   2     108     177
   2  14  -2     191     141
  -2  14  -2     156     177
   2  14   2     142     140
   2 -14  -2     333     115
  -3  14   2   12010     487
   3  14  -2   13092     476
   3 -14   2   12966     462
  -3  14  -2   12535     500
   3 -14  -2   12898     464
   3  14   2   12667     468
   0  15   2    2107     381
   0  15  -2    2449     395
   0   0   3       1      18
   0   0  -3      11      22
  -1   0  -3      12      30
   1   0  -3       1      21
   1   0  -3      35      20
   1   0   3      10      28
  -2   0  -3      32      13
   3   0   3       4      37
   3   0  -3       7      39
   3   0  -3      21      39
  -3   0  -3       2      51
   3   0  -3       1      31
   3   0   3      16      43
   4   0  -3       0      33
   4   0  -3       0      43
   4   0   3       2      45
   4   0  -3       0      45
   4   0   3       2      48
  -4   0  -3       2      62
   5   0   3      40      55
   5   0   3       4      62
   5   0  -3       2      43
   5   0  -3       4      55
   5   0  -3      46      63
  -5   0  -3       4      76
   6   0   3       1      73
   6   0  -3       3      73
   6   0   3       1      61
  -6   0  -3       7      91
   6   0  -3       8      67
   7   0  -3       1      75
   7   0   3       1      88
  -7   0  -3      36     106
   8   0   3       9     101
   8   0  -3      25      94
  -8   0   3     105     103
  -8   0  -3       5     122
   0  -1  -3   54814    3725
   0   1  -3   52864    3818
   0  -1   3   59223    3748
   1  -1   3     797      54
  -1  -1  -3     714      64
   1   1  -3     868      53
   1   1  -3     963      48
   1   1   3     791      52
   1  -1  -3     953      53
  -1   1  -3     951      71
   1  -1  -3     833      58
   1   1   3     736      60
   1  -1  -3     736      50
   2   1  -3   26338     693
   2  -1   3   27583     694
   2  -1  -3   28536     692
   2   1   3   28896     694
   2   1   3   29005     741
   2  -1  -3   27117     734
   2  -1  -3   28879     740
  -2   1  -3   25543     740
   3   1  -3     306      60
   3   1  -3     262      66
  -3  -1  -3     298      59
   3  -1   3     396      74
   3  -1   3     233      52
   3  -1  -3     309      47
   3  -1  -3     284      48
   3   1   3     435      69
  -3   1  -3     291      63
   4  -1   3   26837     701
   4   1  -3   28251     698
   4   1  -3   27131     740
   4  -1   3   26687     744
  -4   1  -3   26524     747
   4  -1  -3   28140     700
   4  -1  -3   26733     737
   4  -1  -3   27749     735
   4   1   3   28022     738
   4   1   3   27673     700
   5  -1   3     116      63
  -5  -1  -3      46      56
   5   1  -3     200      71
   5  -1   3       3      69
   5   1  -3     141      63
  -5   1  -3     115      84
   5   1   3     251      57
   5  -1  -3     165      68
   5  -1  -3      93      54
   5  -1  -3      16      64
   5   1   3      84      68
   6  -1   3   12569     396
   6   1  -3   12117     373
  -6  -1  -3   12581     417
   6  -1   3   12137     381
   6   1  -3   12158     403
  -6   1  -3   12361     415
   6  -1  -3   12566     378
   6  -1  -3   12473     401
   6   1   3   12634     380
  -7  -1  -3       6     101
   7   1  -3      32      75
  -7   1   3      36      85
   7  -1   3      24      91
   7   1  -3      44      93
  -7   1  -3       7     102
   7   1   3       3      84
   7  -1  -3       8      82
   8   1  -3    8936     331
   8  -1   3    8863     344
  -8   1   3    9332     359
  -8  -1  -3    8463     366
   8   1   3    9032     338
   8  -1  -3    9049     339
  -8   1  -3    8882     375
  -8  -1   3    8881     354
   0   2   3   20846    9178
   0  -2  -3   21412    9539
   0  -2  -3   23108    9457
   0   2  -3   25301   10136
   0  -2   3   25398    9733
   0   2  -3   17684    9204
   1  -2   3   90197    2305
   1   2  -3   86776    2320
   1  -2   3   86325    2462
  -1  -2  -3   84446    2474
   1   2  -3   88336    2484
   1   2   3   87988    2295
  -1   2  -3   86858    2795
   1  -2  -3   90829    2308
   1  -2  -3   92157    2425
   1  -2  -3   90334    2470
   1   2   3   86810    2716
  -2  -2  -3     948      35
   3  -2   3   52874    1285
  -3  -2  -3   51238    1367
   3  -2   3   53223    1376
   3   2  -3   52777    1284
   3  -2  -3   54580    1283
   3  -2  -3   54374    1370
   3   2   3   52982    1285
  -3   2  -3   52340    1367
   4  -2   3       8      51
   4   2  -3       2      50
   4   2  -3       2      44
   4  -2   3       4      54
  -4  -2  -3       2      58
   4   2   3       2      43
   4  -2  -3       3      42
   4   2   3       7      50
  -4   2  -3      10      68
   4  -2  -3      20      50
   4  -2  -3       4      46
   5  -2   3   17347     519
   5  -2   3   16784     491
   5   2  -3   16995     519
   5   2  -3   16894     484
   5  -2  -3   17164     510
  -5   2  -3   16838     526
   5   2   3   17354     488
   5   2   3   18156     501
   5  -2  -3   17124     509
   5  -2  -3   17235     488
   6  -2   3    1048     140
   6   2  -3    1246     125
   6  -2   3    1218     148
  -6  -2  -3    1015     163
   6   2  -3    1261     142
  -6   2  -3    1234     165
   6  -2  -3    1040     137
   6  -2  -3    1003     119
   6   2   3    1090     137
   7   2  -3    6817     311
   7  -2   3    7520     286
   7  -2   3    7753     298
  -7  -2  -3    7634     313
   7   2  -3    7096     272
  -7   2   3    7686     292
   7   2   3    7653     284
   7  -2  -3    7431     279
  -7   2  -3    7615     313
   8  -2   3     118     111
  -8  -2  -3     242     124
   8   2   3     458     109
  -8   2  -3     223     133
   8  -2  -3     201     112
   0  -3  -3  279805   25681
   0  -3   3  290442   25263
   0   3   3  274643   23791
   0  -3  -3  275083   24652
   0   3  -3  290604   25497
   0   3  -3  240943   23908
  -1  -3  -3   18471     433
   1   3  -3   18478     410
   1   3  -3   18942     440
   1  -3   3   18093     441
  -1   3   3   17834     411
   1   3   3   18631     438
  -1   3  -3   18161     438
   1  -3  -3   19176     421
   1   3   3   18911     413
  -1   3  -3   17677     411
   2  -3   3    1768      47
   2   3  -3    1665      40
   2  -3  -3    1968      59
   2  -3  -3    1893      42
   2   3   3    1837      37
   2   3   3    1914      41
  -2   3  -3    1813      54
   3  -3   3    6139     198
   3   3  -3    6223     203
   3   3  -3    6652     192
  -3  -3  -3    6100     205
   3  -3   3    6227     212
  -3   3  -3    6012     214
   3   3   3    5908     190
   3  -3  -3    6004     206
   3   3   3    6606     196
   3  -3  -3    6055     195
   4   3  -3   76289    1860
   4  -3   3   78702    1991
  -4  -3  -3   74177    1977
   4  -3   3   77461    1860
   4  -3  -3   78356    1859
   4   3   3   78280    1970
   4  -3  -3   77220    1965
   4   3   3   77566    1861
   4  -3  -3   77394    1984
  -4   3  -3   76747    1976
   5  -3   3    6019     236
   5   3  -3    6039     211
   5  -3   3    5823     229
  -5  -3  -3    5530     237
   5  -3  -3    6049     225
   5   3   3    6325     221
  -5   3  -3    5314     250
   5  -3  -3    5670     224
   6  -3   3     224      91
  -6   3   3     297      89
   6  -3   3     244      93
   6   3  -3     300      79
  -6  -3  -3     317     105
   6   3  -3     398      96
   6   3   3     308      91
   6  -3  -3     335      94
  -6   3  -3     425     109
   6  -3  -3     327      76
   7  -3   3     654     111
  -7  -3  -3     852     188
   7   3  -3     996     138
   7   3  -3     512     123
   7  -3   3     820     116
   7  -3  -3     766     111
   7   3   3     795     157
  -7   3  -3     841     133
   8   3  -3   17159     528
  -8  -3  -3   17601     578
   8  -3   3   16932     540
  -8   3  -3   17059     579
   8  -3  -3   17872     539
   8   3   3   18146     537
   0   4   3   76137     200
   0   4  -3   73629     200
   0  -4  -3   75840     206
   0  -4   3   72587     197
   0   4  -3   73189     198
   1  -4   3     455      63
   1   4  -3     511      58
  -1   4   3     383      72
  -1  -4  -3     476      54
   1  -4  -3     361      67
  -1   4  -3     452      68
   2   4  -3    1642      76
   2  -4   3    1009      86
   2  -4   3    1299      95
   2   4  -3    1801      77
   2  -4  -3    1345      91
   2   4   3    1363      77
  -2   4  -3     961      94
   2  -4  -3    1064      82
   2   4   3    1270      82
  -3  -4  -3    2502     111
   3   4  -3    2285     102
   3  -4   3    1672     119
   3  -4   3    2248     113
   3   4  -3    2356      97
   3   4   3    2682      91
   3  -4  -3    1752     114
   3   4   3    2650     102
  -3   4  -3    1621     129
   3  -4  -3    1845     114
   3  -4  -3    1767      87
   4  -4   3     114      72
   4   4  -3     123      58
   4  -4   3      98      67
   4   4  -3      96      65
  -4  -4  -3      94      70
   4  -4  -3     177      69
   4   4   3      91      48
  -4   4  -3     174      90
   4   4   3     112      64
   4  -4  -3     111      60
  -5   4   3     972     129
   5  -4   3     812     153
   5  -4   3     904     146
   5   4  -3    1073     140
   5   4  -3    1114     127
   5   4   3    1034     137
   5  -4  -3     799     150
   6   4  -3    9103     345
   6  -4   3    9450     331
  -6   4   3    9129     324
  -6  -4  -3    9381     346
   6   4  -3    9160     314
   6  -4   3    9395     351
  -6   4  -3    9384     352
   6  -4  -3    9506     331
   6  -4  -3    9722     327
   6   4   3    9337     323
  -7  -4  -3      54     107
   7  -4   3       1      94
   7   4  -3      10     102
   7  -4   3      23     103
   7   4  -3      43      78
   7  -4  -3      19      99
   7  -4  -3       2      84
   7   4   3       7      90
  -7   4  -3      53     119
   8   4  -3     464     111
   8  -4   3     137     118
   8  -4   3     381     139
   8  -4  -3     430     128
  -8   4  -3     453     146
   8   4   3     665     131
   0  -5  -3    7876     173
   0   5  -3    7299     160
   0   5  -3    6155     171
   0  -5   3    6271     163
   0   5   3    7279     177
   1   5  -3    3868     140
  -1   5   3    3316     144
  -1  -5  -3    3778     134
  -1  -5  -3    3771     124
   1   5  -3    3601     133
   1  -5   3    3756     141
   1   5   3    3691     143
   1  -5  -3    3588     146
  -1   5  -3    3658     142
  -1   5  -3    3728     135
  -2   5   3   45407    1285
   2  -5   3   44584    1324
   2   5  -3   44667    1313
  -2   5   3   44592    1238
   2   5  -3   44985    1238
   2   5   3   44928    1240
  -2   5  -3   43780    1238
   2   5   3   43670    1308
  -2   5  -3   42584    1304
   3   5  -3     480      84
   3  -5   3     458      80
   3   5  -3     503      87
  -3  -5  -3     570      72
  -3   5   3     604      71
   3   5   3     524      71
   3  -5  -3     551      80
   3   5   3     381      62
   3  -5  -3     316      75
  -3   5  -3     465      87
  -4  -5  -3    7153     266
   4   5  -3    7115     247
  -4   5   3    7151     245
   4   5  -3    7082     263
   4  -5   3    6727     271
   4  -5   3    7063     263
   4  -5  -3    7217     257
   4   5   3    7394     254
   4  -5  -3    7283     267
  -4   5  -3    6959     281
   5   5  -3    2535     173
   5  -5   3    1956     178
   5   5  -3    2596     152
   5  -5   3    2481     175
  -5  -5  -3    2012     176
   5   5   3    2975     163
   5  -5  -3    2623     176
  -5   5  -3    2049     200
   5  -5  -3    2077     167
   6  -5   3   43034    1163
  -6  -5  -3   40476    1145
   6   5  -3   41726    1076
   6  -5   3   41489    1081
   6   5  -3   42656    1152
   6   5   3   41694    1081
  -6   5  -3   41580    1145
   6  -5  -3   42491    1080
   6  -5  -3   42828    1151
   7  -5   3     102     101
  -7  -5  -3     352     115
   7   5  -3     130      86
   7  -5   3     252     111
   7   5  -3      26     112
   7  -5  -3     256     111
   7  -5  -3     147      98
   7   5   3     162      95
   8  -5   3    5680     299
   0  -6   3    5923     197
   0   6   3    6301     214
   0  -6  -3    5641     207
   0   6  -3    6061     211
   0   6  -3    5467     194
  -1  -6  -3   13205     341
   1   6  -3   14147     336
  -1   6   3   13321     338
  -1  -6  -3   13127     327
   1   6  -3   13838     341
   1  -6   3   14439     348
  -1   6  -3   13471     334
  -1   6  -3   13815     335
   1   6   3   13411     337
   1  -6  -3   13508     354
  -2   6   3    1292     143
   2   6  -3    1101     120
   2   6  -3    1281     129
   2  -6   3     967     134
  -2  -6  -3     660     113
   2  -6  -3    1319     134
  -2   6  -3     887     125
   2   6   3     782     132
  -2   6  -3     919     138
  -3  -6  -3      11      55
   3   6  -3      22      56
   3  -6   3       3      57
   3   6  -3      36      56
   3   6   3       9      62
   3  -6  -3      56      31
  -3   6  -3      14      76
   4   6  -3     336      80
  -4  -6  -3     355      76
   4  -6   3     168      90
   4  -6   3     236      53
   4   6  -3     268      71
   4   6   3     263      74
   4  -6  -3     362      77
  -4   6  -3     485      99
   4  -6  -3      77      84
   5   6  -3    7455     266
   5   6  -3    7342     249
   5  -6   3    7370     269
   5  -6   3    6035     283
  -5  -6  -3    6456     268
   5   6   3    7333     255
   5  -6  -3    6784     268
  -5   6  -3    6879     283
   5  -6  -3    7330     262
   6  -6   3     766     125
  -6  -6  -3    1281     171
   6  -6   3     936     131
   6   6  -3     816     126
   6   6  -3     818     106
   6  -6  -3     941     125
   6  -6  -3     833     115
   6   6   3     790     112
   7  -6   3     958     143
   7   6  -3     887     118
   7  -6   3    1134     193
   7   6  -3     689     142
   7  -6  -3     927     131
   7  -6  -3    1143     145
   7   6   3    1231     167
   8  -6  -3       6     111
   0  -7  -3   30597     332
   0  -7   3   30577     320
   0   7  -3   32771     333
   0   7  -3   31754     318
   0   7   3   31585     331
   1   7  -3    7159     233
  -1  -7  -3    7445     235
  -1   7   3    7099     248
   1  -7   3    7117     242
   1   7  -3    7332     248
  -1  -7  -3    7660     217
  -1   7  -3    6818     226
  -1   7  -3    7027     252
   1  -7  -3    7222     251
   1   7   3    7347     245
   2   7  -3   63718    1813
   2  -7   3   62676    1934
  -2   7   3   63449    1813
  -2  -7  -3   61859    1905
   2   7  -3   63696    1916
   2   7   3   64734    1813
  -2   7  -3   64199    1904
  -2   7  -3   61476    1811
   2   7   3   63796    1915
   2  -7  -3   63261    1936
   3   7  -3    2556     144
   3  -7   3    2195     156
  -3  -7  -3    2270     132
   3   7  -3    2467     139
  -3   7   3    2464     172
  -3   7  -3    2323     146
   3   7   3    2434     150
  -3   7  -3    2286     169
  -4  -7  -3    4854     207
   4   7  -3    4852     209
   4  -7   3    5201     222
   4   7  -3    4829     200
   4   7   3    4754     209
   4  -7  -3    5012     222
   5   7  -3    3107     185
   5   7  -3    3520     202
  -5  -7  -3    3262     199
   5  -7   3    2999     219
   5   7   3    3097     192
   5  -7  -3    3071     202
   5  -7  -3    2871     207
  -6  -7  -3    9067     347
   6   7  -3    8830     324
   6  -7   3    9293     363
   6   7  -3    9181     359
   6  -7   3    9453     351
   6  -7  -3    9024     347
   6  -7  -3    9031     355
   6   7   3    9018     331
   7  -7   3    1459     212
   7   7  -3    1655     181
   7   7  -3    1239     172
   7  -7   3    1679     225
   7   7   3    1804     189
   7  -7  -3    1451     225
   7  -7  -3    1989     211
   0  -8  -3   10193     391
   0   8   3   10423     390
   0  -8   3    9317     379
   0   8  -3    9749     387
   0   8  -3    9711     373
  -1  -8  -3    1265     109
  -1   8   3    1261     159
   1  -8   3    1418     113
   1   8  -3    1260      99
   1   8  -3    1255     140
   1  -8  -3    1198     122
  -1   8  -3    1258      96
  -1   8  -3    1438     154
   1   8   3    1198     145
   2   8  -3    1961     167
  -2   8   3    1944     211
  -2  -8  -3    1399     153
   2  -8   3    1526     184
   2   8  -3    2166     186
  -2   8  -3    1602     208
   2  -8  -3    1808     186
   2   8   3    1775     190
   2   8   3    1547     158
   3   8  -3      13      67
  -3  -8  -3      72      61
   3   8  -3       4      72
   3  -8   3      31      75
  -3   8   3      23     103
   3  -8  -3       0      72
   3   8   3       3      76
  -3   8  -3      10      98
   4  -8   3     981     149
  -4  -8  -3    1081     131
  -4   8   3    1121     182
   4   8  -3     837     131
   4   8  -3    1120     141
  -4   8  -3    1056     133
   4   8   3     803     113
   4  -8  -3     782     143
   5   8  -3    2191     172
  -5  -8  -3    2616     182
   5   8  -3    2505     191
   5  -8  -3    2315     189
   5   8   3    2232     185
   6  -8   3    3460     232
  -6  -8  -3    3748     224
   6   8  -3    3136     226
   6   8  -3    3003     196
   6  -8   3    3086     246
   6  -8  -3    3062     222
   6   8   3    3125     207
   6  -8  -3    2692     229
   7  -8   3       3     123
   7  -8   3       3     151
   7   8  -3      41      98
   7   8  -3       0     133
   7   8   3     164     105
   7  -8  -3      81     118
   7  -8  -3       0     132
   0   9  -3    2002     229
   0  -9   3    1527     181
   0  -9  -3    1844     195
   0   9   3    2265     229
   1   9  -3     285      63
  -1   9   3     356     114
  -1  -9  -3     397      69
   1  -9   3     224      71
   1   9  -3     340     100
   1   9   3     379      98
  -1   9  -3     297     111
   1  -9  -3     356      80
  -2   9   3   30034     761
   2   9  -3   28163     770
   2  -9   3   28781     791
   2   9  -3   29370     752
  -2   9  -3   29418     759
   2   9   3   29704     752
   2  -9  -3   28620     794
  -3   9   3    9737     343
   3  -9   3    9650     343
   3   9  -3    9484     320
   3   9  -3    9185     321
  -3   9  -3    9347     338
   3  -9  -3    9387     341
   3   9   3    9755     328
  -4   9   3    2767     214
   4  -9   3    2954     196
   4   9  -3    2312     178
   4   9  -3    2621     172
  -4  -9  -3    2804     160
   4   9   3    2540     190
   4  -9  -3    2679     185
  -4   9  -3    2661     218
   5   9  -3     443     164
  -5   9  -3     896     215
   6   9  -3   16955     549
  -6   9   3   17124     538
  -6  -9  -3   17224     537
   6  -9   3   17426     570
   6   9  -3   16972     519
  -6   9  -3   17243     540
   6   9   3   16971     521
   6  -9  -3   17392     560
  -7  -9  -3    1541     227
   0  10  -3    8260     283
   0 -10   3    8022     254
   0 -10  -3    7762     257
   0  10   3    8040     284
  -1 -10  -3    1262     123
   1  10  -3    1315     124
  -1  10   3    1338     144
   1 -10   3    1308     128
  -1  10  -3    1291     138
   1  10   3    1089     124
   1 -10  -3    1370     139
   2 -10   3    3681     198
   2  10  -3    3861     199
  -2  10   3    3799     238
  -2  10  -3    3809     236
   2  10   3    3622     203
   2 -10  -3    3658     203
   3  10  -3    1977     154
   3  10  -3    1695     172
  -3  10   3    1969     209
   3 -10   3    1905     177
  -3  10  -3    1876     214
   3  10   3    1640     178
   3 -10  -3    1646     174
   4  10  -3    1899     177
  -4  10   3    2336     219
   4 -10   3    2311     192
   4  10  -3    2353     167
   4  10   3    1928     193
   4 -10  -3    2081     187
  -4  10  -3    2565     214
   5  10  -3     641     123
  -5  10   3     619     145
   5  10  -3     374     106
   5  10   3     543     117
   5 -10  -3     546     118
  -5  10  -3     582     147
  -6  10   3    3120     273
   6  10  -3    2679     216
   6  10  -3    2573     238
   6 -10   3    2836     254
   6 -10  -3    2631     243
  -6  10  -3    2943     268
   6  10   3    2485     222
   0  11   3   12114     570
   0  11  -3   12684     573
   0 -11  -3   11675     567
   1 -11   3    1818     169
   1  11  -3    1759     208
  -1  11   3    1938     235
   1  11   3    1762     206
   1 -11  -3    2050     181
  -1  11  -3    1848     235
  -2  11   3   19132     573
   2  11  -3   18052     554
   2 -11   3   18182     579
   2 -11  -3   18316     582
   2  11   3   18485     559
  -2  11  -3   19032     576
  -3  11   3     245     148
   3  11  -3     283     112
   3 -11   3     434     112
   3  11   3     251     114
   3 -11  -3     259     109
  -3  11  -3     264     145
   4  11  -3    6261     281
  -4  11   3    6489     312
   4 -11   3    6569     305
   4 -11  -3    6067     302
  -4  11  -3    6466     307
   4  11   3    6239     292
   5  11  -3     593     130
   5 -11   3     475     152
  -5  11   3     822     164
  -5  11  -3     868     169
   5  11   3     759     139
   5 -11  -3     759     137
   0  12  -3     325     154
   0  12   3     429     153
   1  12  -3     756     195
  -1  12   3     741     179
  -1  12  -3     682     183
   1 -12  -3     915     169
   1  12   3     705     159
  -2  12   3    4467     296
   2 -12   3    4152     243
   2  12  -3    4364     255
  -2  12  -3    4195     288
   2  12   3    4342     257
   2 -12  -3    4335     250
   3 -12   3     200     115
   3  12  -3      79     114
  -3  12   3       6     152
   3 -12  -3       6     112
   3  12   3      11     120
  -3  12  -3     190     156
   4 -12   3    1645     214
   4  12  -3    1505     207
  -4  12   3    1386     185
   4 -12  -3    1521     211
  -4  12  -3    1574     187
   4  12   3    1391     203
   5  12  -3     785     158
  -5  12   3     977     191
   5 -12   3     800     173
   5  12   3     813     166
   0  13   3   12645     281
   0  13  -3   11641     273
  -1  13   3      63     158
   1  13  -3      54     132
   1  13   3     150     134
  -1  13  -3      59     161
  -2  13   3     627     263
   2  13  -3     753     220
   2 -13   3     876     198
  -2  13  -3     521     255
   2  13   3     665     218
   2 -13  -3    1035     199
   3 -13   3   17643     585
   3  13  -3   17307     557
  -3  13   3   17675     585
   3 -13  -3   17393     585
   3  13   3   17133     561
  -3  13  -3   17623     582
   4 -13   3   14360     514
  -4  13   3   13643     510
   4  13  -3   14447     484
   4 -13  -3   14102     509
   4  13   3   13527     485
  -4  13  -3   13380     504
   0  14  -3    7556     209
   0  14   3    8384     201
  -1  14   3     132     180
   1  14  -3     255     154
   1  14   3     252     154
  -1  14  -3      17     179
  -2  14   3    3759     315
   2  14  -3    4008     285
   2 -14  -3    4093     256
  -2  14  -3    3837     328
   2  14   3    3627     281
  -3  14   3    1135     221
   3 -14   3    1799     218
   3 -14  -3    1806     213
   3  14   3    1297     181
   0  15   3    8163     312
   0  15  -3    8236     360
   0   0   4   41730      28
   0   0  -4   42415      34
   1   0  -4    2868      83
   1   0   4    3053     101
   1   0  -4    2886     100
   1   0   4    3201      86
   1   0  -4    2796      95
  -1   0  -4    3137     109
   2   0  -4   64612    1597
   2   0   4   67893    1471
   2   0  -4   71630    1623
   2   0  -4   70461    1512
   3   0   4    2776     109
   3   0  -4    2542      92
  -3   0  -4    2572     119
   3   0  -4    2410     100
   3   0  -4    2406      95
   3   0   4    2555     103
   4   0   4   30185     770
  -4   0  -4   28524     773
   4   0  -4   28951     755
   4   0  -4   28316     719
   4   0  -4   27711     764
   4   0   4   28420     721
   5   0  -4       6      59
   5   0  -4     262      66
  -5   0  -4      54      86
   5   0  -4       6      48
   5   0   4     178      63
   5   0   4       0      67
  -6   0  -4   18465     571
   6   0  -4   18570     554
   6   0   4   19200     552
   6   0  -4   18730     523
   6   0   4   18969     530
   7   0   4     635     104
   7   0  -4     491     110
   7   0  -4     663      92
  -7   0  -4     711     124
  -8   0  -4    1803     233
   8   0  -4    1827     183
   8   0   4    2102     200
  -8   0   4    2357     201
   0  -1  -4      80    2071
   0  -1   4      40    2070
  -1  -1  -4   30093     735
   1   1  -4   31215     691
   1  -1   4   30125     683
   1   1  -4   31258     736
  -1   1  -4   29318     803
  -1  -1   4   30463     729
   1  -1  -4   33180     731
   1   1   4   31360     683
   1   1   4   30553     738
   1  -1  -4   31240     737
   1  -1  -4   31547     684
   2  -1   4     506      35
  -2  -1  -4     764      24
  -2   1  -4     403      48
   2   1   4     582      38
   2   1   4     540      36
   2  -1  -4     173      31
   3   1  -4   40999    1027
   3   1  -4   41993     964
  -3  -1  -4   40830    1032
   3  -1   4   41183     966
   3  -1   4   41558    1035
   3  -1  -4   41048    1023
   3   1   4   41093     965
   3   1   4   42392    1031
  -3   1  -4   40941    1032
   3  -1  -4   42114     964
   4   1  -4       5      44
  -4  -1  -4       0      19
   4  -1   4       8      50
   4  -1   4       8      53
   4   1  -4       6      49
   4   1   4       1      48
   4  -1  -4       6      44
  -4   1  -4       8      69
   4   1   4       0      51
   4  -1  -4       6      38
   4  -1  -4       6      44
   5   1  -4    2015     130
   5  -1   4    1490     134
   5   1  -4    1723     121
   5  -1   4    2157     133
   5   1   4    2146     126
   5  -1  -4    2031     129
  -5   1  -4    2002     170
   5  -1  -4    1794     115
   5   1   4    1735     134
   5  -1  -4    1791     124
  -6  -1  -4       0      89
   6   1  -4       6      61
   6  -1   4      10      75
   6  -1   4       0      67
   6   1  -4      59      77
   6   1   4       0      63
   6   1   4       0      71
   6  -1  -4      61      70
   6  -1  -4       2      73
  -6   1  -4       8      97
   7  -1   4    7458     293
   7   1  -4    6862     307
  -7  -1  -4    6761     312
   7  -1   4    7654     291
   7   1  -4    6983     274
   7  -1  -4    7112     279
  -7   1  -4    7402     317
   7   1   4    7018     286
   8   1  -4     793      96
  -8  -1  -4     362     130
   8  -1   4     504     114
   8   1   4     462     107
  -8   1  -4     522     132
   8  -1  -4     263     106
   0   2  -4    1179    2939
   0   2   4    1934    2697
   0  -2  -4    4191    2912
   0  -2   4     848    2916
   0   2  -4    1074    3313
   0  -2  -4    1192    2894
   1  -2   4      61      35
   1   2  -4     182      27
  -1  -2  -4      57      39
   1  -2   4     144      35
   1   2  -4     177      35
   1  -2  -4     118      27
   1  -2  -4     197      33
  -1   2  -4      85      45
   1   2   4      57      29
   1   2   4      57      35
   1  -2  -4     102      32
   2  -2   4    5542     111
   2   2  -4    5006     103
   2   2   4    4918     115
   2   2   4    5179     106
   2  -2  -4    4898     105
   2  -2  -4    4445     103
   3  -2   4      63      50
  -3  -2  -4      94      54
   3   2  -4      83      44
   3   2  -4     117      39
   3  -2  -4      59      42
  -3   2  -4      42      64
   3   2   4     162      47
   3  -2  -4      61      42
   3  -2  -4      95      34
   4   2  -4   64630    1595
  -4  -2  -4   66114    1705
   4   2  -4   63426    1698
   4  -2   4   66445    1710
   4  -2   4   66070    1598
  -4   2  -4   65047    1703
   4  -2  -4   66370    1596
   4   2   4   64174    1596
   4   2   4   67394    1697
   4  -2  -4   66443    1702
   4  -2  -4   64571    1689
   5   2  -4     246      74
   5   2  -4     165      62
   5  -2   4     219      73
  -5  -2  -4      26      86
   5  -2   4      76      80
   5  -2  -4     124      67
   5  -2  -4      38      68
   5   2   4     124      74
   5   2   4     183      62
   5  -2  -4      65      60
  -5   2  -4     118      94
   6   2  -4   24377     666
   6  -2   4   24823     673
   6  -2   4   24969     714
  -6  -2  -4   24911     722
   6   2  -4   24434     713
   6  -2  -4   24853     706
   6   2   4   25080     672
   6  -2  -4   24358     667
  -6   2  -4   24647     721
   6  -2  -4   25109     700
   7  -2   4      92      93
   7   2  -4       2      93
  -7  -2  -4      43     101
   7   2  -4     190      77
   7  -2  -4      21      81
  -7   2  -4     118     116
   7   2   4      36      85
   8   2  -4   32823     898
   8  -2   4   34400     905
  -8   2   4   33957     950
  -8  -2  -4   31432     965
   8   2   4   32899     904
   8  -2  -4   34039     904
  -8   2  -4   33960     969
   0   3   4   14115     324
   0  -3   4   13095     345
   0  -3  -4   13898     336
   0   3  -4   12538     327
   0   3  -4   13907     347
   0  -3  -4   13876     351
  -1   3   4  116749    2802
   1  -3   4  119522    3007
   1   3  -4  116357    3023
  -1  -3  -4  116543    3008
   1   3  -4  120316    2828
   1   3   4  119982    2804
  -1   3  -4  116919    3029
   1   3   4  119577    2999
   1  -3  -4  124384    2953
  -1   3  -4  112434    2814
   2  -3   4    1910     100
  -3  -3  -4    6877     217
   3  -3   4    6754     205
   3   3  -4    6699     211
   3  -3   4    7120     219
   3   3  -4    6853     195
   3  -3  -4    7118     199
  -3   3  -4    6907     227
   3   3   4    7112     200
   3  -3  -4    7130     213
   4  -3   4     103      61
   4   3  -4     170      50
   4  -3   4      96      62
  -4  -3  -4      89      70
   4  -3  -4      93      51
   4  -3  -4     116      52
   4   3   4     154      59
   4  -3  -4     102      57
   4   3   4     172      53
  -4   3  -4     104      85
   5   3  -4   38776     981
   5  -3   4   40052    1057
  -5  -3  -4   37710    1053
   5   3  -4   35598    1040
   5  -3   4   38977     988
   5  -3  -4   38723     984
   5   3   4   38427     986
   5  -3  -4   39503    1047
  -5   3  -4   39918    1057
   5   3   4   39943    1034
   5  -3  -4   39022    1034
   6   3  -4    1133     146
   6  -3   4     820     115
   6  -3   4    1171     154
  -6  -3  -4    1263     178
   6   3  -4    1161     127
   6  -3  -4    1047     143
   6   3   4    1145     144
   6  -3  -4    1135     129
  -6   3  -4    1425     188
   7  -3   4    5326     263
   7   3  -4    5328     232
  -7  -3  -4    5173     277
  -7   3   4    5419     245
   7   3  -4    5350     263
   7  -3   4    5234     250
   7   3   4    5164     245
  -7   3  -4    5341     281
   7  -3  -4    4891     243
  -8  -3  -4     276     132
   8   3  -4     258      92
   8  -3   4     192     114
   8  -3  -4     276     117
  -8   3  -4     206     138
   8   3   4     237     105
   0   4   4  224352     959
   0  -4  -4  221165    1027
   0   4  -4  215917     960
   0   4  -4  215766    1019
   0  -4   4  212915    1018
   0  -4  -4  222327    1002
   1   4  -4   18926     529
  -1  -4  -4   19148     520
   1  -4   4   19175     534
  -1   4   4   17983     496
  -1   4  -4   18855     530
   1  -4  -4   18669     536
   1   4   4   16573     525
   1   4   4   18795     497
   2  -4   4   48507    1287
   2   4  -4   41585    1362
   2   4  -4   45265    1280
   2  -4   4   46102    1376
  -2   4  -4   44644    1362
   2  -4  -4   44923    1341
   2   4   4   46863    1282
   2  -4  -4   46603    1282
   2  -4  -4   48073    1376
   3  -4   4    2163     106
   3   4  -4    2268     101
   3   4  -4    2298     112
  -3  -4  -4    2183     120
   3  -4   4    2143     126
  -3   4  -4    2179     142
   3  -4  -4    2136     118
   3  -4  -4    1909      85
   3  -4  -4    2198     119
   4  -4   4   25633     669
  -4  -4  -4   25165     709
   4  -4   4   26272     720
   4   4  -4   25765     663
  -4   4  -4   26447     715
   4  -4  -4   25950     665
   4   4   4   26588     694
   4   4   4   25947     667
   4  -4  -4   25981     711
   4  -4  -4   26042     690
  -5  -4  -4    7643     303
   5   4  -4    8008     267
   5  -4   4    8342     301
   5   4  -4    8201     292
   5  -4   4    8058     288
   5  -4  -4    8144     288
   5  -4  -4    7661     278
  -5   4  -4    8241     317
   5   4   4    8236     277
   6  -4   4       7      86
   6   4  -4       7      84
  -6  -4  -4     144     102
   6   4  -4      44      70
   6  -4   4      65      95
  -6   4   4      32      78
   6  -4  -4      78      71
   6  -4  -4      14      85
  -6   4  -4      87     113
   6   4   4      13      80
   7   4  -4    1404     150
   7   4  -4    1089     174
  -7  -4  -4    1317     197
   7  -4   4     989     179
   7  -4   4    1318     183
  -7   4  -4    1477     212
   7  -4  -4    1168     161
   7   4   4    1197     169
   7  -4  -4    1378     179
   8  -4   4    3213     250
   8   4  -4    3694     228
  -8   4  -4    3553     288
   8  -4  -4    3931     252
   0  -5   4   95844     948
   0   5   4   92910     895
   0   5  -4   92758     897
   0   5  -4   91702     946
   0  -5  -4   92751     956
  -1  -5  -4     619      66
   1   5  -4     643      76
  -1   5   4     567      94
   1   5  -4     631      83
   1  -5   4     658      82
   1  -5  -4     554      85
  -1   5  -4     446      89
   1   5   4     564      89
  -1   5  -4     455      81
   2   5  -4     623     119
  -2  -5  -4     597     118
  -2   5   4     405     133
   2  -5   4     573     134
   2   5  -4     637     125
   2   5   4     752     127
  -2   5  -4     620     130
   2  -5  -4     365      90
  -2   5  -4     602     132
   3  -5   4    2046     118
   3   5  -4    1835     108
  -3  -5  -4    1580     118
   3   5  -4    1825     111
   3  -5   4    1924     139
  -3   5  -4    1517     144
   3   5   4    1962     120
   3  -5  -4    1719     129
   3  -5  -4    1719     123
   3   5   4    1697     104
   4   5  -4     419      70
   4  -5   4     359      57
  -4  -5  -4     473      78
   4   5  -4     502      67
   4  -5   4     437      82
   4  -5  -4     420      75
  -4   5  -4     394      98
   4   5   4     451      73
   4  -5  -4     404      68
   5  -5   4       0      94
   5  -5   4       4      90
  -5  -5  -4       2      98
   5   5  -4      13      71
  -5   5  -4       6     119
   5   5   4      23      82
   5  -5  -4       1      75
   5  -5  -4       0      87
   6   5  -4   14983     450
  -6  -5  -4   15242     492
   6  -5   4   15383     461
   6  -5   4   15633     498
   6   5  -4   14959     489
   6  -5  -4   15390     481
   6  -5  -4   15114     456
  -6   5  -4   14962     494
   6   5   4   15340     455
   7  -5   4     141     108
  -7  -5  -4     420     125
   7  -5   4     349     120
   7   5  -4     222     111
   7   5  -4     187      87
   7   5   4     199      99
  -7   5  -4     372     134
   7  -5  -4     344     115
   7  -5  -4     231     100
   8  -5   4     314     120
   0  -6  -4   39263    1748
   0  -6   4   38564    1739
   0   6  -4   39921    1734
   0   6  -4   38991    1641
   0   6   4   41977    1641
  -1  -6  -4   13177     400
  -1  -6  -4   13246     417
  -1   6   4   13273     406
   1  -6   4   14131     421
   1   6  -4   13730     402
   1   6  -4   14076     418
   1  -6  -4   13005     427
  -1   6  -4   13237     411
  -1   6  -4   12875     400
   1   6   4   13059     402
   2   6  -4   71014    1588
   2   6  -4   76115    1500
   2  -6   4   74484    1605
  -2  -6  -4   75067    1581
  -2   6   4   73622    1500
   2   6   4   73246    1498
   2  -6  -4   73531    1606
  -2   6  -4   71244    1498
  -2   6  -4   72462    1582
   2   6   4   73799    1588
   3  -6   4    2171     137
  -3  -6  -4    1847     126
   3   6  -4    2501     128
   3   6  -4    2376     124
   3   6   4    1925     134
   3   6   4    2077     115
  -3   6  -4    2357     146
  -4  -6  -4    2951     156
   4  -6   4    2836     183
   4   6  -4    2941     156
   4   6  -4    2715     142
   4  -6   4    2757     148
   4   6   4    2610     153
  -4   6  -4    3241     184
   4  -6  -4    2640     171
   4  -6  -4    3224     158
   5   6  -4    8321     297
  -5  -6  -4    7145     298
   5   6  -4    7910     272
   5  -6   4    8000     292
   5  -6   4    7228     310
   5  -6  -4    7775     283
   5   6   4    8055     283
  -5   6  -4    7885     311
   5  -6  -4    7554     294
  -6  -6  -4    9362     350
   6   6  -4    9259     355
   6  -6   4    9201     360
   6  -6   4    9497     339
   6   6  -4    8982     317
   6  -6  -4    9089     331
   6   6   4    8949     325
   6  -6  -4    9308     343
   7  -6   4     940     145
   7  -6   4     866     139
   7   6  -4    1083     157
   7   6  -4    1082     187
   7  -6  -4     982     144
   7  -6  -4    1357     183
   7   6   4    1044     126
   0  -7   4    3958     699
   0   7  -4    4464     678
   0   7  -4    3768     697
   0  -7  -4    4071     711
   0   7   4    4091     675
  -1  -7  -4    5294     127
  -1  -7  -4    5021     148
   1   7  -4    4731     144
   1   7  -4    4912     165
   1  -7   4    4887     154
  -1   7   4    5656     177
  -1   7  -4    4773     169
   1  -7  -4    5152     159
  -1   7  -4    4716     141
   1   7   4    5267     166
   2   7  -4     443     114
   2  -7   4      93     115
  -2  -7  -4     120      91
   2   7  -4     264      93
  -2   7   4     234      91
   2   7   4      67      96
  -2   7  -4      93     105
   2   7   4      51     120
  -2   7  -4     102     135
   3   7  -4    1980     125
  -3  -7  -4    2126     124
   3  -7   4    2083     146
   3   7  -4    2003     129
  -3   7   4    2014     164
  -3   7  -4    1961     145
   3   7   4    2133     137
  -3   7  -4    2028     160
   4   7  -4     904     126
  -4  -7  -4    1094     129
   4  -7   4     899     142
   4   7  -4     756     120
   4   7   4     824     103
   4  -7  -4     963     137
   5   7  -4    3165     190
  -5  -7  -4    2987     192
   5   7  -4    2911     172
   5  -7   4    2861     210
   5  -7  -4    2811     196
   5  -7  -4    2694     188
   5   7   4    2887     183
   6  -7   4     835     144
   6  -7   4    1084     183
   6   7  -4    1224     151
   6   7   4    1071     166
   6  -7  -4     793     122
   6  -7  -4     896     138
   7   7  -4     934     123
   7  -7   4     781     156
   7  -7   4     757     143
   7   7  -4     842     148
   7   7   4     669     129
   7  -7  -4     637     149
   7  -7  -4    1094     191
   0   8  -4      39     100
   0  -8  -4      77     121
   0  -8   4      50     104
   0   8  -4       5     151
   1  -8   4     419      65
   1   8  -4     352      61
  -1   8   4     501     100
  -1  -8  -4     397      64
   1   8  -4     345      84
  -1   8  -4     378      95
   1   8   4     440      89
  -1   8  -4     388      61
   1  -8  -4     443      73
  -2  -8  -4   53049    1299
   2   8  -4   55255    1237
  -2   8   4   53049    1237
   2  -8   4   54187    1318
   2   8  -4   53004    1298
   2   8   4   52519    1236
   2   8   4   52309    1298
  -2   8  -4   53882    1239
   2  -8  -4   52638    1319
   3   8  -4    2326     135
   3  -8   4    2029     162
  -3   8   4    2039     181
   3   8  -4    2231     148
  -3  -8  -4    2147     131
   3   8   4    2115     153
   3  -8  -4    2010     152
  -3   8  -4    2172     182
   4   8  -4     757     100
  -4   8   4    1181     180
   4  -8   4     976     152
   4   8  -4     777     135
  -4  -8  -4    1089     125
   4   8   4     700     106
  -4   8  -4     983     128
   4  -8  -4     815     108
   5   8  -4      72      99
   5   8  -4      43      86
   5   8   4     146      98
   5  -8  -4      68      94
   6  -8   4   29109     855
  -6  -8  -4   28232     827
   6   8  -4   28107     781
   6   8  -4   29141     837
   6  -8   4   29663     807
   6   8   4   28134     786
   6  -8  -4   29617     845
   7   8  -4     253     109
   7  -8   4     288     150
   7   8  -4     236     138
   7  -8  -4     112     142
   7  -8  -4     565     131
   0   9  -4    3505     331
   0  -9   4    3300     308
   0  -9  -4    3372     320
   0   9   4    3673     333
  -1  -9  -4     619     116
   1   9  -4     666      97
   1  -9   4     514     116
  -1   9   4     620     125
   1   9  -4     683     110
   1   9   4     528     111
   1  -9  -4     632     131
  -1   9  -4     681     169
  -2   9   4     871     124
   2  -9   4     561      88
   2   9  -4     670      80
   2   9  -4     624      98
   2  -9  -4     598      89
  -2   9  -4     861     124
   2   9   4     764     102
   3   9  -4     313      92
   3   9  -4     341      86
  -3   9   4     454     119
   3  -9   4     368      97
  -3   9  -4     549     121
   3   9   4     365      97
   3  -9  -4     232      93
  -4   9   4      55     117
   4   9  -4      44      84
   4  -9   4      63      96
   4   9  -4     111      86
   4  -9  -4       8      92
  -4   9  -4      58     119
   4   9   4      34      93
  -5   9   4     351     139
   5   9  -4     372     106
   5   9  -4     209      94
  -5   9  -4     251     133
   5   9   4     246     106
   5  -9  -4     171     106
  -6   9   4    1885     243
   6  -9   4    1339     216
   6   9  -4    1457     181
   6   9  -4    1707     220
   6   9   4    1174     190
  -6   9  -4    2002     253
   6  -9  -4    1423     208
  -7  -9  -4     932     235
   0 -10  -4    1520     130
   0  10  -4    1959     129
   0  10   4    1854     128
  -1 -10  -4     982      85
   1  10  -4     716     111
   1 -10   4     904      83
  -1  10   4     738     135
  -1  10  -4     868     129
   1  10   4     760     114
   1 -10  -4     689      90
  -2  10   4   17635     551
   2  10  -4   17613     538
   2 -10   4   17812     561
   2  10   4   17957     538
   2 -10  -4   17309     568
  -2  10  -4   18939     553
   3  10  -4    8901     300
   3  10  -4    8824     309
   3 -10   4    9067     329
  -3  10   4    9177     333
   3 -10  -4    8985     323
   3  10   4    8821     312
  -3  10  -4    8744     329
   4 -10   4    7155     295
  -4  10   4    6812     293
   4  10  -4    6764     270
   4  10  -4    6570     261
   4  10   4    6656     278
   4 -10  -4    6529     279
  -4  10  -4    6730     291
  -5  10   4      17     137
   5  10  -4     119     110
   5  10  -4      27      95
  -5  10  -4      42     138
   5  10   4      46     110
   5 -10  -4      16     106
  -6  10   4   14677     505
   6 -10   4   15903     549
   6  10  -4   15743     518
   6  10  -4   15333     487
   6  10   4   15675     494
  -6  10  -4   15084     507
   6 -10  -4   15197     529
   0  11   4    5396     550
   0  11  -4    5761     559
   0 -11  -4    5547     555
   1  11  -4      18     114
  -1  11   4       2     138
   1 -11   4     102      80
  -1  11  -4       2     135
   1 -11  -4      99      89
   1  11   4      15     111
   2 -11   4   13064     363
  -2  11   4   13031     381
   2  11  -4   12552     355
  -2  11  -4   13583     384
   2 -11  -4   12878     366
   2  11   4   12274     351
  -3  11   4      17     142
   3  11  -4       3     101
   3 -11   4      27     104
  -3  11  -4       2     140
   3  11   4      60     110
   3 -11  -4       8     101
   4  11  -4    4806     248
   4 -11   4    4916     269
  -4  11   4    4581     279
  -4  11  -4    4703     278
   4  11   4    4814     257
   4 -11  -4    4606     264
  -5  11   4     314     159
   5  11  -4     250     116
   5 -11   4      55     143
  -5  11  -4     450     162
   5  11   4     161     123
   5 -11  -4     326     130
   6  11  -4    2260     266
   0  12   4   11577     343
   0 -12  -4   11670     310
   0  12  -4   11386     339
  -1  12   4       1     149
   1  12  -4       4     122
  -1  12  -4       1     148
   1  12   4      13     119
   1 -12  -4     139      96
   2  12  -4     458     123
   2 -12   4     664     105
  -2  12   4     600     162
   2  12   4     669     127
   2 -12  -4     740     110
  -2  12  -4     585     161
  -3  12   4   21764     629
   3 -12   4   21815     644
   3  12  -4   21491     611
  -3  12  -4   21726     627
   3  12   4   20948     609
   3 -12  -4   21090     644
   4  12  -4   18495     548
   4 -12   4   18429     587
  -4  12   4   17420     560
   4  12   4   17940     543
  -4  12  -4   17443     563
   4 -12  -4   18371     579
  -5  12   4    1228     202
   0  13   4     280     161
   0  13  -4     310     160
   1  13  -4     411     140
  -1  13   4       5     161
   1 -13  -4     675     113
  -1  13  -4      89     164
   1  13   4     457     140
   2 -13   4    3266     236
   2  13  -4    3107     243
  -2  13   4    3027     282
   2 -13  -4    3754     224
  -2  13  -4    2865     290
   2  13   4    2865     240
   3  13  -4    7365     340
  -3  13   4    7497     378
   3 -13   4    7219     352
   3 -13  -4    7738     348
   3  13   4    7223     345
  -3  13  -4    7358     385
  -4  13   4    1453     207
   4  13  -4    1566     222
   4 -13   4    1611     235
   4 -13  -4    1700     220
   4  13   4    1587     236
  -4  13  -4    1281     211
   0  14   4   17347     813
   0  14  -4   16978     813
   1  14  -4     272     160
  -1  14   4     149     189
   1  14   4     319     161
  -1  14  -4     229     193
   2  14  -4    3483     239
  -2  14   4    2794     279
  -2  14  -4    3144     286
   2 -14  -4    3808     221
   2  14   4    3226     238
   3 -14   4     181     132
  -3  14   4       5     207
   3 -14  -4     335     131
   0  15   4    6864     519
   2 -15  -4     330     127
   1   0   5      10       9
   1   0  -5      18      30
   1   0   5      10      24
  -1   0  -5      10      43
   2   0  -5      28      21
   2   0   5      26      32
   2   0  -5      28      19
  -2   0  -5      26      19
   2   0   5      26      28
   2   0  -5      28      25
  -3   0  -5       9      31
   3   0   5       5      43
   3   0   5       9      40
   3   0  -5       1      31
   3   0  -5       1      36
   3   0  -5      12      26
   4   0   5      46      55
   4   0  -5       4      47
   4   0  -5       1      33
   4   0  -5      39      47
   4   0   5      20      55
  -4   0  -5      17      61
   5   0   5       4      65
  -5   0  -5       4      85
   5   0   5      29      61
   5   0  -5       1      54
   5   0  -5       1      58
   6   0  -5      27      73
   6   0   5      41      78
   6   0   5       3      69
  -6   0  -5       3      96
   6   0  -5      12      62
   7   0   5      21      91
   7   0  -5       9      87
  -7   0  -5      27     112
   7   0  -5      55      76
   8   0  -5      98      91
   8   0   5      84     105
  -8   0  -5      65     135
   0   1   5       7     777
   0  -1   5     167     780
   0  -1  -5     388     776
   1   1  -5    3317     134
   1  -1   5    3110     139
   1   1  -5    3639     113
   1  -1   5    3287     118
  -1  -1  -5    3380     144
   1  -1  -5    3281     113
   1   1   5    3212     138
   1  -1  -5    3539     131
   1   1   5    3322     115
  -1  -1   5    3585     127
   1  -1  -5    3212     133
   2  -1  -5      50      52
   3  -1   5      24      46
   3   1  -5     102      36
   3  -1   5     112      48
  -3  -1  -5     100      58
   3   1  -5     119      45
  -3   1  -5      73      63
   3  -1  -5      61      39
   3  -1  -5     128      36
   3  -1  -5     115      42
   3   1   5     127      46
   3   1   5     230      51
   4  -1   5   71823    1854
   4  -1   5   71259    1731
   4   1  -5   69728    1841
   4   1  -5   71786    1729
  -4   1  -5   71250    1849
   4   1   5   71448    1731
   4   1   5   72749    1847
   4  -1  -5   70333    1836
   4  -1  -5   72243    1729
   4  -1  -5   73566    1842
  -5  -1  -5     248      92
   5   1  -5     545      85
   5  -1   5     316      85
   5   1  -5     422      75
   5  -1   5     424      80
   5  -1  -5     368      74
  -5   1  -5     353     107
   5   1   5     406      82
   5  -1  -5     294      66
   5  -1  -5     564      81
   6   1  -5   35905     985
   6   1  -5   35943     922
   6  -1   5   36249     988
   6  -1   5   35302     927
  -6  -1  -5   35741     996
   6   1   5   36283     976
  -6   1  -5   35832     997
   6   1   5   35781     926
   6  -1  -5   35906     924
   6  -1  -5   34952     978
  -7  -1  -5     443     118
   7   1  -5     464     108
   7   1  -5     494      90
   7  -1   5     411     105
   7  -1   5     294      95
   7  -1  -5     408      96
   7   1   5     504     100
   7  -1  -5     327     107
  -7   1  -5     560     130
   8  -1   5   19980     591
   8   1  -5   20058     578
  -8   1   5   19725     614
  -8  -1  -5   19247     637
   8   1  -5   20014     637
   8  -1  -5   20025     584
  -8   1  -5   19439     642
   8   1   5   20533     590
   0  -2  -5    1108    1882
   0   2  -5     878    1945
   0   2   5     838    1738
   0  -2   5    1159    1885
   0   2  -5     732    2187
  -1  -2  -5   96941    3325
   1  -2   5  104833    2578
   1  -2   5   99204    3000
   1   2  -5  101859    2578
   1  -2  -5  104558    2739
  -1  -2   5  103375    2755
   1   2   5  107360    2558
  -1   2  -5   97461    2799
   1   2   5   97195    2732
   3   2  -5   11133     280
  -3  -2  -5   10523     312
   3  -2   5   10760     287
   3   2  -5   11121     305
   3  -2   5   11502     313
   3  -2  -5   10837     294
   3   2   5   10716     284
   3  -2  -5   10663     281
  -3   2  -5   11016     318
   3  -2  -5   11122     303
   3   2   5   10973     305
   4  -2   5     112      58
  -4  -2  -5     102      70
   4   2  -5     143      52
   4   2  -5      67      43
   4  -2   5     181      59
   4  -2  -5     108      44
   4  -2  -5      92      48
   4  -2  -5     128      48
  -4   2  -5     142      83
   4   2   5      42      54
   4   2   5     136      53
   5  -2   5   20636     576
   5   2  -5   20783     569
   5  -2   5   21392     616
  -5  -2  -5   19938     617
   5   2  -5   20508     608
   5   2   5   21717     600
   5  -2  -5   20331     569
  -5   2  -5   20879     625
   5   2   5   20793     574
   5  -2  -5   20898     601
   5  -2  -5   20709     600
   6   2  -5     168      85
   6   2  -5     277      75
  -6  -2  -5     262     106
   6  -2   5      77      86
   6  -2   5     142      87
   6  -2  -5     250      78
   6  -2  -5     207      81
   6  -2  -5     163      64
  -6   2  -5     347     116
   6   2   5     168      85
   7   2  -5    8077     295
   7   2  -5    8130     326
   7  -2   5    8362     326
   7  -2   5    8493     312
  -7  -2  -5    7893     339
   7   2   5    8319     310
  -7   2  -5    8641     352
   7  -2  -5    8366     307
   8   2  -5     108      88
  -8  -2  -5      69     128
   8  -2   5     187     112
  -8   2   5     217      99
   8   2   5     226     108
  -8   2  -5     143     137
   8  -2  -5     166     109
   0   3   5   37634    3494
   0  -3   5   38878    4442
   0  -3  -5   37916    3726
   0  -3  -5   36746    3773
   0   3  -5   33526    3785
   0   3  -5   34733    4276
   1   3  -5      54      34
   1  -3   5      56      36
  -1  -3  -5      78      37
  -1   3   5      32      35
   1   3  -5      78      29
   1  -3  -5      27      26
  -1   3  -5      69      46
   1   3   5      44      19
   1   3   5      71      33
   1  -3  -5      72      15
  -1   3  -5      64      29
   2  -3   5   17001     315
   2   3  -5   16218     338
   2  -3   5   16500     343
  -2  -3  -5   16097     335
   2   3   5   16727     312
   2  -3  -5   15759     340
  -2   3  -5   16264     342
   2  -3  -5   14940     319
   3  -3   5      11      58
  -3  -3  -5     171      64
   3   3  -5     141      39
  -3   3  -5     177      82
   3  -3  -5     105      31
   3  -3  -5     178      54
   3   3   5     210      52
   3  -3  -5      82      53
   4  -3   5   24195     604
   4   3  -5   23380     599
   4  -3   5   24458     652
  -4  -3  -5   23490     647
   4  -3  -5   22705     624
   4  -3  -5   24125     642
  -4   3  -5   24573     655
   4   3   5   24163     603
   4  -3  -5   23448     598
   4   3   5   24494     634
   5  -3   5      93      75
  -5  -3  -5       1      88
   5  -3   5       2      80
   5   3  -5     120      64
   5   3  -5     152      73
   5   3   5     115      70
  -5   3  -5      17     106
   5  -3  -5      10      62
   5  -3  -5       1      66
   5  -3  -5       1      60
   6  -3   5   10443     347
   6   3  -5   10240     335
  -6  -3  -5   10084     379
   6  -3   5   10560     371
   6   3  -5   10265     365
   6  -3  -5   10732     343
  -6   3  -5   10823     388
   6   3   5   10295     345
   6  -3  -5   10891     353
   6  -3  -5   10476     353
   7  -3   5     199     105
   7  -3   5      31      95
   7   3  -5     230      85
   7   3  -5     177     101
  -7  -3  -5     130     116
  -7   3  -5     284     125
   7  -3  -5     209      97
   7   3   5     122      99
   8  -3   5   11755     432
   8  -3   5   11868     462
   8   3  -5   12283     476
   8   3  -5   12294     409
   8  -3  -5   12382     419
  -8   3  -5   11784     479
   8   3   5   12635     421
   0  -4  -5    3991     169
   0   4   5    4107     157
   0  -4  -5    4398     147
   0   4  -5    3962     157
   0   4  -5    4599     164
   0  -4   5    3969     159
   1   4  -5  106147    2686
  -1   4   5  102260    2477
  -1  -4  -5  101648    2663
   1  -4   5  105976    2650
  -1   4  -5  101329    2967
   1  -4  -5  108096    2615
   1   4   5  107758    2483
  -2  -4  -5     610     338
   2  -4   5    3006     327
   2   4  -5    3489     314
   2  -4   5    2802     349
   2   4  -5    3742     343
   2  -4  -5    2878     316
  -2   4  -5    2638     346
   2   4   5     780     339
   2   4   5     523     317
   2  -4  -5    3428     350
  -3  -4  -5    2863     150
   3   4  -5    3064     128
   3   4  -5    2971     141
   3  -4   5    2425     150
   3   4   5    3181     141
   3   4   5    3058     137
  -3   4  -5    2738     174
   3  -4  -5    2971     149
   3  -4  -5    2981     143
   4  -4   5      98      69
   4   4  -5     153      50
   4  -4   5     177      70
  -4  -4  -5     219      77
   4  -4  -5     111      56
   4  -4  -5     115      60
   4   4   5     113      60
   4  -4  -5     109      49
  -4   4  -5     196     100
   4   4   5     147      55
   5  -4   5   38385     956
   5  -4   5   39002    1027
  -5  -4  -5   39704    1020
   5   4  -5   38175     946
   5   4  -5   39374    1015
  -5   4  -5   39751    1026
   5  -4  -5   39520    1016
   5   4   5   40718     954
   5  -4  -5   38305     950
   5  -4  -5   38962     994
   6   4  -5     603      89
   6  -4   5     397     110
   6  -4   5     638     111
   6   4  -5     649     105
  -6  -4  -5     754     124
  -6   4  -5     652     131
   6  -4  -5     507      88
   6   4   5     574      96
   6  -4  -5     504     101
   7   4  -5    7432     289
   7  -4   5    7611     316
   7  -4   5    7711     332
   7   4  -5    7696     320
  -7  -4  -5    7626     336
   7  -4  -5    7657     306
   7  -4  -5    8169     338
   7   4   5    7634     306
  -7   4  -5    7642     350
   8   4  -5     212      98
   8  -4   5      20     115
   8  -4  -5     268     125
  -8   4  -5     362     152
   0  -5  -5  445869    9176
   0   5  -5  425661    9846
   0  -5   5  438750    9137
   0   5   5  421886    8564
   0  -5  -5  423903    9022
   0   5  -5  438815    8580
   1  -5   5   10161     380
   1   5  -5    9737     377
   1   5  -5    9977     355
  -1   5   5   10158     358
  -1  -5  -5    9950     365
   1  -5  -5   10580     386
  -1   5  -5    9952     378
   1   5   5    9992     356
  -1   5  -5    9223     354
   2   5  -5   78567    1941
   2   5  -5   80665    2070
   2  -5   5   81291    2082
  -2  -5  -5   78033    2076
  -2   5   5   81640    1941
  -2   5  -5   79387    2063
   2   5   5   78834    2071
  -2   5  -5   77438    1940
   2  -5  -5   78712    2035
   2   5   5   79530    1943
   2  -5  -5   78463    2081
   3   5  -5     941      88
   3   5  -5     895      94
   3  -5   5     912     125
  -3  -5  -5     738     108
   3  -5   5     806     101
   3   5   5     933      97
   3  -5  -5     868      69
   3  -5  -5     898     107
   3   5   5     877     104
   3  -5  -5     953     113
  -3   5  -5     966     109
   4   5  -5   12783     371
   4   5  -5   12418     398
   4  -5   5   12237     382
  -4  -5  -5   12438     402
   4  -5  -5   12223     374
   4   5   5   12419     377
   4   5   5   12642     382
   4  -5  -5   12456     403
  -4   5  -5   12496     414
   5  -5   5    5883     283
  -5  -5  -5    6484     285
   5  -5   5    6630     273
   5   5  -5    5947     243
   5   5  -5    6402     268
   5   5   5    6996     262
   5  -5  -5    6249     257
   5  -5  -5    6483     266
  -5   5  -5    6806     301
   6   5  -5    8665     305
  -6  -5  -5    9063     354
   6   5  -5    8665     331
   6  -5   5    9001     327
   6  -5   5    8924     350
   6   5   5    8472     315
   6  -5  -5    9017     318
   6  -5  -5    9027     330
  -6   5  -5    8914     365
   7   5  -5     708     105
   7  -5   5     758     133
   7   5  -5    1110     179
   7  -5   5     777     131
  -7   5  -5     805     157
   7   5   5     859     121
   7  -5  -5     636     115
   7  -5  -5     761     130
   8  -5   5     291     129
   0  -6   5   36008    4451
   0   6  -5   35228    4439
   0   6   5   37209    4201
   0   6  -5   36218    4191
   0  -6  -5   36433    4461
   1  -6   5   28984     866
  -1   6   5   28194     815
   1   6  -5   29165     814
   1   6  -5   28380     860
  -1  -6  -5   27108     843
  -1   6  -5   27114     855
   1  -6  -5   28227     872
   1   6   5   29009     814
  -1   6  -5   27081     812
  -2   6   5     210      70
   2   6  -5     585      53
   2   6  -5     281      56
   2  -6   5     385      59
  -2  -6  -5     177      52
   2   6   5     247      53
  -2   6  -5     109      64
   2  -6  -5     392      47
   2   6   5     230      62
  -2   6  -5     172      66
   3  -6   5    8662     291
   3   6  -5    8017     274
  -3  -6  -5    7993     274
   3   6  -5    8429     261
  -3   6   5    8396     273
   3   6   5    8440     269
  -3   6  -5    8411     283
   3   6   5    8148     265
  -4  -6  -5     286      88
   4  -6   5      81     101
   4  -6   5     250      81
   4   6  -5     194      70
   4   6  -5     277      82
  -4   6  -5     302     110
   4  -6  -5     278      79
   4  -6  -5      83      87
   4   6   5     192      81
  -5  -6  -5   16559     539
   5  -6   5   16544     513
   5   6  -5   16208     535
   5   6  -5   16366     498
   5  -6   5   16383     554
   5  -6  -5   16167     535
   5  -6  -5   16548     505
   5   6   5   16977     507
  -5   6  -5   15722     543
  -6  -6  -5    8636     343
   6  -6   5    8445     345
   6   6  -5    8562     328
   6   6  -5    8163     297
   6  -6   5    8012     322
   6  -6  -5    8337     314
  -6   6  -5    7762     360
   6   6   5    8282     311
   6  -6  -5    8757     326
   7   6  -5    2152     184
   7  -6   5    2120     221
   7   6  -5    2472     221
   7  -6   5    2010     225
   7  -6  -5    2577     212
   7  -6  -5    2191     218
   7   6   5    2278     203
   0   7  -5     234     624
   0  -7   5     338     623
   0   7  -5     350     603
   0  -7  -5     260     637
   0   7   5     250     601
   1  -7   5    5079     182
   1   7  -5    4698     180
   1   7  -5    4814     190
  -1  -7  -5    4535     157
  -1   7   5    4996     197
  -1  -7  -5    4762     183
  -1   7  -5    4853     192
  -1   7  -5    5002     177
   1  -7  -5    4912     188
   1   7   5    4719     189
  -2   7   5   66796    1728
   2  -7   5   67029    1850
   2   7  -5   67481    1833
   2   7  -5   67671    1728
  -2  -7  -5   67658    1819
   2   7   5   67908    1728
   2   7   5   67873    1834
  -2   7  -5   68829    1827
  -2   7  -5   64860    1728
  -3   7   5    2065     162
   3   7  -5    1977     133
  -3  -7  -5    1944     131
   3   7  -5    1932     127
   3  -7   5    1993     150
  -3   7  -5    2081     157
   3   7   5    2041     126
  -3   7  -5    1939     160
   3   7   5    2220     145
   4  -7   5     157      90
  -4  -7  -5     100      82
   4   7  -5       8      65
   4   7  -5      10      78
   4  -7  -5      24      82
  -4   7  -5       7     102
   4   7   5      12      76
  -5  -7  -5    3004     211
   5   7  -5    2770     181
   5  -7   5    2785     222
   5   7  -5    2845     194
   5  -7  -5    2763     201
   5  -7  -5    2898     201
   5   7   5    2777     200
  -6  -7  -5   31863     917
   6   7  -5   32307     862
   6  -7   5   33527     881
   6   7  -5   31992     918
   6  -7   5   33419     943
   6  -7  -5   32979     928
   6  -7  -5   33596     876
   6   7   5   32468     868
   7  -7   5     499     134
   7   7  -5     514     107
   7   7  -5     558     130
   7  -7   5     397     149
   7  -7  -5     260     140
   7   7   5     377     115
   7  -7  -5     508     124
   0   8   5    1130     151
   0   8  -5    1212     151
   0  -8   5    1472     104
   0  -8  -5    1145     125
   0   8  -5    1521      98
  -1  -8  -5    3023     155
   1  -8   5    2971     154
   1   8  -5    2796     144
   1   8  -5    2979     171
  -1   8   5    2781     185
   1  -8  -5    2560     162
   1   8   5    2970     172
  -1   8  -5    2856     178
  -1   8  -5    2956     143
   2   8  -5     390      90
   2  -8   5     124      88
  -2   8   5     441     114
   2   8  -5     352      79
  -2   8  -5     240     109
   2   8   5     126      75
   2  -8  -5     328      90
  -2   8  -5     225      84
   2   8   5     247      96
  -3  -8  -5    3780     176
  -3   8   5    4105     211
   3   8  -5    3890     184
   3  -8   5    4011     205
   3   8  -5    3931     189
   3  -8  -5    3731     192
  -3   8  -5    4123     216
   3   8   5    4102     193
   4   8  -5     295      77
   4  -8   5     310     101
  -4   8   5     299     113
  -4  -8  -5     539      90
   4   8  -5     422      92
  -4   8  -5     395     115
   4   8   5     187      91
   4  -8  -5     298      92
   5   8  -5     514      96
   5   8  -5     668     113
  -5  -8  -5     797     159
   5   8   5     395     110
   5  -8  -5     574     109
   6   8  -5     453     104
   6  -8   5     364     130
   6   8  -5     726     133
   6   8   5     324     114
   6  -8  -5     454     122
   7   8  -5    1477     192
   7  -8  -5    1431     204
   7  -8  -5     935     170
   0   9   5     156     104
   0  -9   5     141      64
   0  -9  -5     366      73
   0   9  -5      14     114
   0   9  -5     133      62
   1  -9   5      54      70
  -1   9   5     110     112
   1   9  -5      63      61
   1   9  -5      28      91
  -1  -9  -5      67      72
  -1   9  -5      93     108
   1  -9  -5      56      76
   1   9   5      24      96
   2  -9   5   38885     987
   2   9  -5   38569     968
   2   9  -5   39344     928
  -2   9   5   39503     937
   2   9   5   38142     970
   2   9   5   38819     928
  -2   9  -5   38638     934
   2  -9  -5   37410     987
   3  -9   5    4515     230
   3   9  -5    5013     208
  -3   9   5    4479     240
   3   9  -5    4610     209
   3  -9  -5    4322     225
   3   9   5    4759     218
  -3   9  -5    4624     243
   4  -9   5    3212     212
  -4   9   5    3285     224
   4   9  -5    3198     181
   4   9  -5    3292     187
  -4   9  -5    3116     223
   4   9   5    3030     199
   4  -9  -5    2928     201
   5   9  -5     263     100
  -5   9   5     327     126
   5   9  -5      82      90
  -5  -9  -5     182     102
   5  -9  -5      97     101
  -5   9  -5     202     130
   5   9   5      34     103
   6  -9   5   28869     862
   6   9  -5   27660     782
   6   9  -5   28883     837
  -6   9   5   27570     793
  -6  -9  -5   27939     822
  -6   9  -5   27844     799
   6   9   5   27708     786
   6  -9  -5   28151     847
   0  10  -5    4922     125
   0  10   5    5137     122
   0 -10  -5    5165      91
  -1 -10  -5       1      75
  -1  10   5       8     123
   1 -10   5       4      76
   1  10  -5       4      98
  -1  10  -5       1     123
   1  10   5      10     102
   1 -10  -5       8      83
   2  10  -5    1684     184
   2 -10   5    1790     190
  -2  10   5    2094     227
   2  10  -5    1928     180
   2  10   5    1619     192
  -2  10  -5    1921     223
   2 -10  -5    2037     191
   3 -10   5    3966     224
   3  10  -5    3993     207
  -3  10   5    4215     248
   3  10  -5    4232     193
   3  10   5    3846     215
   3 -10  -5    3761     222
  -3  10  -5    4001     244
  -4  10   5     699     144
   4 -10   5     778     135
   4  10  -5     743     116
   4  10  -5     733     118
  -4  10  -5     800     149
   4  10   5     779     128
   4 -10  -5     694     125
   5  10  -5     431     114
   5  10  -5     264     105
  -5  10   5     231     144
  -5  10  -5     368     149
   5 -10  -5     283     118
   5  10   5     155     116
   6  10  -5    1988     202
   6  10  -5    2299     232
  -6  10   5    2228     257
  -6  10  -5    2088     257
   6  10   5    1760     217
   6 -10  -5    1764     243
   0  11   5    1463     457
   0 -11  -5    1361     451
   0  11  -5    1627     458
   1 -11   5      52      89
  -1  11   5       1     140
   1  11  -5       1     114
  -1  11  -5       6     141
   1  11   5       7     119
   1 -11  -5      37      95
   2 -11   5      21      97
  -2  11   5      17     142
   2  11  -5      21     113
   2 -11  -5      21     101
   2  11   5      14     112
  -2  11  -5      57     148
  -3  11   5    3036     249
   3  11  -5    2733     198
   3 -11   5    2805     212
   3 -11  -5    2840     209
  -3  11  -5    2679     248
   3  11   5    2881     201
   4  11  -5   22875     659
  -4  11   5   22133     668
   4 -11   5   23948     715
   4 -11  -5   22784     704
  -4  11  -5   22522     669
   4  11   5   22581     663
  -5  11   5     296     162
   5  11  -5     242     117
   5 -11   5      55     141
  -5  11  -5     279     162
   5  11   5     227     123
   5 -11  -5     101     125
   6  11  -5   11646     458
   0  12  -5     778     238
   0 -12  -5     621     198
   0  12   5     819     233
   1  12  -5     112     125
  -1  12   5       4     146
  -1  12  -5       6     149
   1  12   5      54     126
   1 -12  -5     209     101
   2  12  -5     171     114
  -2  12   5     114     150
   2 -12   5     221     102
   2  12   5     185     116
  -2  12  -5     208     159
   2 -12  -5     566     105
  -3  12   5   17230     525
   3 -12   5   17395     532
   3  12  -5   16434     499
   3  12   5   16589     501
   3 -12  -5   16443     524
  -3  12  -5   16892     520
   4  12  -5      87     116
  -4  12   5     102     162
   4 -12   5      94     134
  -4  12  -5     221     168
   4  12   5      12     126
   4 -12  -5     171     127
   0  13   5   20972     695
   0  13  -5   21048     692
  -1  13   5      41     156
   1  13  -5      67     132
   1  13   5     131     137
  -1  13  -5      45     161
  -2  13   5    4226     297
   2  13  -5    4512     275
   2  13   5    4065     264
  -2  13  -5    4221     316
   2 -13  -5    4576     264
   3 -13   5     797     148
  -3  13   5     588     186
   3  13  -5     739     143
   3 -13  -5     673     138
  -3  13  -5     844     194
   3  13   5     665     148
   4 -13   5    8826     389
  -4  13   5    8651     392
   4  13  -5    8511     371
  -4  13  -5    8205     432
   4  13   5    8304     379
   0  14   5     169     165
   0  14  -5       7     165
  -1  14   5      13     169
   1  14  -5       8     146
   1  14   5      63     144
  -1  14  -5      42     173
  -2  14   5      69     189
   2  14  -5     235     153
  -2  14  -5     140     191
   2 -14  -5     442     133
   2  14   5     238     152
   3 -14   5    2966     249
   3 -14  -5    2843     237
   2 -15  -5    4511     273
   0   0  -6   10277     345
   0   0   6    9703     345
   1   0  -6    6647     193
  -1   0   6    6335     189
   2   0  -6   51861    1496
   2   0  -6   51335    1428
  -2   0  -6   51404    1501
   2   0   6   53296    1509
   2   0  -6   49954    1525
   2   0   6   53087    1398
   3   0   6   10879     303
   3   0  -6   11223     325
   3   0  -6   11181     298
   3   0   6   11396     334
   4   0  -6  141960    3544
   4   0   6  137880    3463
   4   0  -6  135878    3531
   4   0  -6  135161    3276
   4   0   6  134668    3234
  -5   0  -6    1741     179
   5   0  -6    2282     140
   5   0   6    1877     147
   5   0  -6    1848     124
  -6   0  -6   58745    1545
   6   0   6   57902    1439
   6   0  -6   58536    1436
   6   0  -6   58436    1529
   6   0   6   58617    1533
   7   0  -6     184      78
  -7   0  -6     119     119
   7   0   6     172      90
   7   0  -6     130      91
   8   0  -6   55270    1484
   8   0  -6   54050    1382
   8   0   6   54171    1388
  -8   0  -6   52254    1488
   0  -1   6    4537     225
   0   1   6    4854     226
   0  -1  -6    4210     225
   1  -1   6   31201     705
   1  -1   6   30895     773
   1  -1  -6   29659     767
   1  -1  -6   33013     763
  -1  -1   6   32321     763
   1   1   6   31938     706
  -2  -1  -6    8395     330
   2   1  -6    7410     322
   2  -1   6    7148     295
   2   1  -6    7714     291
   2  -1   6    6981     329
   2   1   6    8702     327
  -2   1  -6    6872     333
   2   1   6    8615     294
   2  -1  -6    7498     290
   3   1  -6   67270    1635
   3  -1   6   67856    1638
  -3  -1  -6   65518    1752
   3  -1   6   68297    1761
   3   1  -6   66519    1748
   3   1  -6   67069    1773
   3  -1  -6   67585    1756
   3   1   6   67338    1638
   3   1   6   68608    1758
  -3   1  -6   67318    1755
   3  -1  -6   69016    1744
   3  -1  -6   67481    1634
   4  -1   6    1578     137
   4   1  -6    1644     118
   4   1  -6    1661     106
   4  -1   6    1594     122
   4  -1  -6    1675     108
  -4   1  -6    1714     160
   4   1   6    1495     119
   4  -1  -6    1716     107
   4   1   6    1672     130
   4  -1  -6    1648     117
   5  -1   6   11987     364
   5   1  -6   11999     380
   5   1  -6   11822     353
   5  -1   6   12639     389
  -5  -1  -6   10969     401
  -5   1  -6   11749     406
   5  -1  -6   11724     354
   5  -1  -6   11784     367
   5   1   6   11816     361
   5   1   6   13187     385
   5  -1  -6   11832     375
   6   1  -6     536      93
  -6  -1  -6     497     117
   6  -1   6     347      91
   6   1  -6     489      78
   6  -1   6     522      93
   6  -1  -6     431      91
   6   1   6     522      90
   6  -1  -6     470      82
   6   1   6     397      85
  -6   1  -6     566     123
   7   1  -6     584     126
   7   1  -6     260     104
   7  -1   6     354      99
  -7  -1  -6     408     128
   7  -1   6     532     106
  -7   1  -6     556     136
   7  -1  -6     544     107
   7  -1  -6     632      95
  -8  -1  -6    1904     232
   8   1  -6    1725     169
   8  -1   6     904     197
   8   1   6    2537     190
   8  -1  -6    1238     179
   0  -2  -6    8811     148
   0   2  -6    9396     151
   0  -2   6    9618     150
   0   2  -6   10524     129
   1  -2   6    2053      94
  -1  -2  -6    2112      89
   1   2  -6    2243      66
  -1  -2   6    2312      77
   1   2   6    2370      71
  -1   2  -6    2198      99
   1  -2  -6    2425      77
  -2  -2  -6   19107     532
   2   2  -6   18710     487
   2   2  -6   18978     532
   2  -2   6   20024     491
   2   2   6   19937     534
   2  -2  -6   21476     487
   2   2   6   19361     489
   2  -2  -6   21296     531
  -2   2  -6   19992     540
   3   2  -6    2499     125
   3  -2   6    2098     124
   3  -2   6    2644     138
   3   2  -6    2587     107
  -3  -2  -6    2672     141
   3   2   6    2883     133
   3   2   6    2840     116
  -3   2  -6    2204     159
   3  -2  -6    2657     116
   3  -2  -6    2356     111
   3  -2  -6    2504     120
   4  -2   6   32640     869
   4  -2   6   31154     801
   4   2  -6   31025     854
   4   2  -6   31785     798
  -4  -2  -6   31155     864
   4  -2  -6   30628     796
   4  -2  -6   30787     845
   4   2   6   31287     802
   4   2   6   32487     857
   4  -2  -6   32240     855
  -4   2  -6   32313     871
   5  -2   6     150      77
  -5  -2  -6      11      96
   5  -2   6      79      78
   5   2  -6     241      65
   5   2  -6     226      73
   5  -2  -6     141      68
   5  -2  -6     145      64
   5  -2  -6      53      55
   5   2   6     261      73
  -5   2  -6      84     109
   6   2  -6   20332     632
  -6  -2  -6   21044     649
   6   2  -6   20850     592
   6  -2   6   21361     641
   6  -2   6   21355     597
  -6   2  -6   21800     653
   6  -2  -6   21623     624
   6  -2  -6   21265     589
   6   2   6   21189     599
   7  -2   6     784     115
  -7  -2  -6     699     133
   7   2  -6     564     113
   7   2  -6     774     125
   7  -2   6     519     109
   7  -2  -6     423     111
   7  -2  -6     993     152
   7   2   6    1012     146
  -7   2  -6     732     142
   8   2  -6    7324     297
   8  -2   6    7656     317
  -8   2   6    7928     315
   8   2  -6    6238     335
  -8   2  -6    7655     371
   8  -2  -6    8080     313
   8   2   6    7519     314
   0   3  -6    2060     133
   0   3   6    2137     133
   0  -3   6    2091     146
   0  -3  -6    2339     144
   0   3  -6    2110     153
   1  -3   6  149109    3724
  -1   3   6  142135    3442
  -1  -3  -6  140142    4295
   1   3  -6  144687    3768
   1   3  -6  148333    3491
   1  -3  -6  146367    3728
   1   3   6  144618    3734
  -1   3  -6  139981    3466
   1   3   6  149209    3450
  -1  -3   6  155492    3703
   1  -3  -6  148830    3675
  -1   3  -6  143606    3756
   2   3   6     654     317
   3   3  -6    8438     236
  -3  -3  -6    8397     269
   3  -3   6    7591     245
   3  -3   6    8441     269
   3   3   6    8424     240
  -3   3  -6    8207     285
   3  -3  -6    7797     238
   3   3   6    8719     259
   3  -3  -6    8279     262
   3  -3  -6    8135     243
   4  -3   6      76      67
   4  -3   6      43      63
   4   3  -6     113      48
  -4  -3  -6      83      81
   4  -3  -6     117      57
   4   3   6      39      58
   4  -3  -6      96      52
   4   3   6     140      60
   4  -3  -6      67      50
  -4   3  -6      66      99
   5   3  -6   35259     960
   5   3  -6   34828     894
   5  -3   6   35776     902
   5  -3   6   36569     971
  -5  -3  -6   34711     967
  -5   3  -6   36588     976
   5  -3  -6   35022     943
   5  -3  -6   35195     894
   5  -3  -6   36064     957
   5   3   6   36713     950
   5   3   6   35533     900
   6  -3   6     193      95
   6  -3   6     442      98
   6   3  -6     382      93
  -6  -3  -6     462     116
   6   3  -6     340      76
   6  -3  -6     322      74
   6  -3  -6     376      85
   6   3   6     307      85
   6  -3  -6     441      88
  -6   3  -6     499     126
   7   3  -6   15485     510
   7  -3   6   15368     478
   7   3  -6   15327     465
   7  -3   6   15124     510
  -7  -3  -6   16040     516
  -7   3  -6   15461     530
   7  -3  -6   15878     470
   7   3   6   16299     473
   8  -3   6     153     128
   8   3  -6     253      89
   8   3   6     271     105
   8  -3  -6     168     105
  -8   3  -6     166     153
   0  -4  -6  309566   10562
   0   4   6  295995    9945
   0  -4   6  321382   10670
   0   4  -6  312897   10875
   0   4  -6  298970   11658
   0  -4  -6  309801   10702
   1  -4   6     284      42
   1   4  -6     246      26
  -1  -4  -6     234      41
   1   4  -6     246      42
  -1   4   6     218      45
   1   4   6     365      42
   1   4   6     234      42
   1  -4  -6     170      11
  -1   4  -6     175      15
  -1   4  -6     228      51
   1  -4  -6     170      27
   2   4  -6   58350    1549
   2  -4   6   58205    1559
  -2  -4  -6   57332    1541
   2   4  -6   58230    1447
   2  -4  -6   57556    1557
   2   4   6   60445    1450
  -2   4  -6   58322    1547
   2   4   6   59290    1551
   2  -4  -6   59094    1525
   3   4  -6     158      56
   3   4  -6     230      52
   3  -4   6     193      67
  -3  -4  -6     107      70
   3  -4  -6     175      36
   3  -4  -6     130      58
   3   4   6     162      59
  -3   4  -6     215      91
   3  -4  -6     146      57
   4  -4   6   10851     365
   4  -4   6   11185     340
  -4  -4  -6   10780     367
   4   4  -6   10728     327
   4   4   6   11092     348
   4  -4  -6   11052     331
   4   4   6   11226     336
  -4   4  -6   11729     384
   4  -4  -6   10890     334
   4  -4  -6   11567     359
   5   4  -6      96      61
   5  -4   6      19      81
  -5  -4  -6       2      95
   5  -4   6      63      88
   5  -4  -6      25      65
  -5   4  -6      88     119
   5  -4  -6       2      72
   5  -4  -6      12      59
   6  -4   6    1075     167
   6   4  -6    1505     160
   6  -4   6    1461     172
  -6  -4  -6    1761     202
   6   4  -6    1509     131
   6   4   6    1510     151
   6  -4  -6    1404     155
  -6   4  -6    1686     229
   6  -4  -6    1407     147
   7  -4   6     466     116
   7   4  -6     398     110
  -7  -4  -6     580     135
   7  -4   6     307     114
   7   4  -6     383      89
   7  -4  -6     493     111
  -7   4  -6     485     150
   7   4   6     294     101
   8  -4   6    2804     248
  -8   4  -6    3316     309
   8  -4  -6    3552     262
   0   5  -6    6609    2902
   0  -5  -6    8123    3096
   0   5   6    6026    2877
   0   5  -6    6160    3079
   0  -5  -6    5936    3057
   0  -5   6    7215    3182
  -1  -5  -6    1115     102
  -1   5   6     986     117
   1  -5   6    1298     116
   1   5  -6    1225     106
   1   5  -6    1155     112
  -1   5  -6    1004     111
   1  -5  -6    1322     118
  -1   5  -6    1018     119
   1   5   6    1163     116
   1   5   6    1200     111
  -2   5   6     483     133
  -2  -5  -6     572     129
   2   5  -6    1156     116
   2  -5   6     423     139
   2   5  -6    1087     129
  -2   5  -6     430     128
   2   5   6     541     133
   2  -5  -6     518     133
   2   5   6     551     124
  -2   5  -6     388     143
   2  -5  -6     473      92
  -3  -5  -6    1365     128
   3   5  -6    1243      99
   3   5  -6    1338     115
   3  -5   6    1316     134
   3   5   6    1393     114
   3  -5  -6    1456     121
   3  -5  -6    1593     115
   3   5   6    1399     115
  -3   5  -6    1437     152
   3  -5  -6    1176      75
   4   5  -6     335      67
   4  -5   6     331      89
  -4  -5  -6     451      95
   4   5  -6     404      80
  -4   5  -6     424     121
   4   5   6     354      71
   4  -5  -6     360      79
   4   5   6     281      76
   4  -5  -6     372      76
   5   5  -6     633     116
   5   5  -6     800     141
  -5  -5  -6    1144     181
   5   5   6     843     141
  -5   5  -6     625     137
   5  -5  -6     806     138
   6   5  -6    1387     160
   6  -5   6    1213     179
   6  -5   6     995     174
  -6  -5  -6    1774     207
   6   5  -6    1400     138
   6  -5  -6    1428     156
   6   5   6    1351     159
   6  -5  -6    1550     164
  -6   5  -6    1301     228
   7   5  -6     182      88
   7  -5   6     101     111
   7  -5   6     270     119
   7   5  -6     236     107
   7  -5  -6     190     112
   7  -5  -6     145      97
   7   5   6     155      99
  -7   5  -6     259     151
   0  -6   6   87863    5886
   0   6   6   87441    5519
   0  -6  -6   80810    5817
   0   6  -6   86960    5542
   0   6  -6   80989    5870
   0  -6  -6   86774    6339
   1  -6   6   17104     390
   1   6  -6   15566     387
  -1   6   6   15359     370
   1   6  -6   16151     368
  -1  -6  -6   15067     369
   1   6   6   15723     367
  -1   6  -6   16855     388
  -1   6  -6   16454     370
   1  -6  -6   15776     395
  -2  -6  -6   73922    1937
   2   6  -6   75722    1830
   2  -6   6   76299    1965
   2   6  -6   76436    1951
  -2   6   6   73560    1830
   2   6   6   77176    1832
  -2   6  -6   77446    1947
  -2   6  -6   74359    1831
   2   6   6   74948    1952
  -3   6   6     351      81
   3   6  -6     521      71
  -3  -6  -6     405      77
   3  -6   6     301      76
   3   6  -6     468      62
  -3   6  -6     405      94
   3  -6  -6     295      70
   3   6   6     400      66
   3   6   6     523      76
   4   6  -6    1605     131
   4  -6   6    1981     148
   4  -6   6    1430     163
   4   6  -6    1686     120
  -4  -6  -6    1802     152
  -4   6  -6    1782     183
   4  -6  -6    1328     143
   4  -6  -6    1935     140
   4   6   6    1626     141
   5  -6   6    9965     380
  -5  -6  -6   11385     378
   5   6  -6   10910     337
   5   6  -6   11095     369
   5  -6   6   11004     358
   5  -6  -6   10728     345
   5  -6  -6   10771     366
  -5   6  -6   10630     382
   5   6   6   11167     349
   6  -6   6    1041     185
   6   6  -6    1069     140
   6   6  -6    1135     171
   6  -6   6     987     145
   6   6   6    1096     161
   6  -6  -6    1202     164
  -6   6  -6    1027     163
   6  -6  -6     990     169
   7  -6   6    1019     152
   7  -6   6    1004     154
   7   6  -6    1242     187
   7   6  -6    1225     160
   7  -6  -6    1436     185
   7  -6  -6    1207     149
   7   6   6    1141     182
   0  -7   6   42123     318
   0   7   6   43176     320
   0  -7  -6   43515     334
   0   7  -6   43231     322
   0   7  -6   41777     323
   1   7  -6   17569     452
  -1   7   6   16877     437
   1   7  -6   17371     432
   1  -7   6   16747     450
   1   7   6   16783     431
  -1   7  -6   16982     433
   1  -7  -6   16466     459
  -1   7  -6   16905     447
  -2  -7  -6     279      63
   2   7  -6     451      65
   2  -7   6     210      74
  -2   7   6     306      95
   2   7  -6     475      66
   2   7   6     488      74
   2   7   6     398      65
  -2   7  -6     446      86
  -2   7  -6     379      82
   3   7  -6   10657     325
   3   7  -6   10498     305
   3  -7   6   11302     344
  -3  -7  -6   10217     320
  -3   7   6   10743     319
  -3   7  -6   10682     321
   3  -7  -6    9326     325
  -3   7  -6   10429     330
   3   7   6   11044     317
   3   7   6   10731     316
   4  -7   6     563      96
  -4  -7  -6     708      95
  -4   7   6     481     105
   4   7  -6     564      75
   4   7  -6     575      88
   4  -7  -6     602      90
  -4   7  -6     450     113
   4   7   6     521      89
  -5  -7  -6    7589     311
   5  -7   6    6957     323
   5   7  -6    7101     280
   5  -7   6    8018     311
   5   7  -6    7284     306
   5  -7  -6    7322     294
   5  -7  -6    7448     308
   5   7   6    7311     294
  -6  -7  -6   11449     406
   6   7  -6   10764     365
   6  -7   6   11247     403
   6   7  -6   11303     400
   6  -7   6   11313     424
   6   7   6   10974     377
   6  -7  -6   11389     404
   6  -7  -6   10521     385
   7   7  -6    3600     218
   7   7  -6    4014     260
  -7  -7  -6    5074     273
   7  -7   6    3064     269
   7  -7   6    3747     267
   7  -7  -6    3893     247
   7   7   6    4090     234
   7  -7  -6    3153     264
   0   8  -6     742     128
   0  -8  -6     705     142
   0   8  -6     788     156
   0   8   6     745     158
   0  -8   6     806     121
   1  -8   6    4650     159
   1   8  -6    4310     145
  -1   8   6    4541     191
   1   8  -6    4723     167
   1   8   6    4372     169
  -1   8  -6    4309     148
  -1   8  -6    4469     181
   1  -8  -6    4467     167
   2  -8   6   63869    1698
   2   8  -6   62719    1586
   2   8  -6   61345    1679
  -2   8   6   65495    1588
  -2   8  -6   61161    1586
  -2   8  -6   64355    1672
   2   8   6   63388    1586
   2   8   6   62854    1683
   2  -8  -6   62076    1695
   3   8  -6    4774     201
   3   8  -6    4914     209
   3  -8   6    4794     232
  -3  -8  -6    4728     205
  -3   8   6    4429     227
   3  -8  -6    4344     220
   3   8   6    5108     212
  -3   8  -6    4482     228
   4   8  -6     319      87
   4  -8   6     381     109
  -4  -8  -6     587      96
   4   8  -6     351      98
  -4   8   6     547     118
   4  -8  -6     472      99
   4   8   6     379      99
  -4   8  -6     422     119
   5   8  -6    5562     245
   5   8  -6    5338     226
   5  -8   6    4530     264
  -5  -8  -6    5773     247
  -5   8   6    5218     258
   5  -8  -6    5122     249
   5   8   6    5520     243
   6   8  -6   32812     883
  -6  -8  -6   32693     937
   6  -8   6   35209     975
   6   8  -6   33483     945
   6  -8  -6   32930     952
   6   8   6   33031     890
   0  -9  -6    3348     172
   0   9  -6    3241     196
   0   9  -6    3109     144
   0   9   6    3792     201
   0  -9   6    3040     154
   1   9  -6     360     109
  -1  -9  -6     554     130
  -1   9   6     579     132
   1   9  -6     473     111
   1  -9   6     498     124
  -1   9  -6     404     128
   1  -9  -6     379      99
   1   9   6     329     110
   2   9  -6    1970     144
   2   9  -6    1854     159
  -2   9   6    2105     198
   2  -9   6    1842     168
  -2   9  -6    2154     197
   2  -9  -6    2287     164
   2   9   6    2171     165
   2   9   6    2059     149
   3   9  -6   18786     547
   3   9  -6   18665     525
  -3   9   6   18973     542
   3  -9   6   19273     574
   3   9   6   18380     527
  -3   9  -6   18656     541
   3  -9  -6   18077     562
   4   9  -6     163      84
  -4   9   6     191     120
   4   9  -6      78      92
   4  -9   6     113     108
   4   9   6     136     100
  -4   9  -6     267     121
   4  -9  -6       6      90
   5   9  -6    1273     158
   5   9  -6    1573     171
   5  -9   6     831     146
  -5   9   6    1493     210
  -5   9  -6    1383     158
   5   9   6    1165     134
   5  -9  -6    1169     177
   6   9  -6    1396     203
   6  -9   6     864     159
   6   9  -6    1238     173
   6   9   6     939     138
   6  -9  -6     951     144
   0 -10  -6    1080     372
   0  10   6    1043     375
   0  10  -6    1083     376
  -1  10   6     195     139
   1  10  -6     273     117
   1 -10   6     447      94
  -1 -10  -6     416      97
   1 -10  -6     256     100
  -1  10  -6     205     136
   1  10   6     200     115
   2  10  -6     348     123
   2 -10   6     274     113
   2  10  -6     430     124
  -2  10   6     452     146
  -2  10  -6     348     146
   2  10   6     368     124
   2 -10  -6     400     153
   3  10  -6    3507     199
   3 -10   6    3723     223
  -3  10   6    3756     244
   3  10  -6    3687     193
  -3  10  -6    3717     241
   3  10   6    4037     209
   3 -10  -6    3497     215
   4  10  -6   22550     622
  -4  10   6   21889     632
   4  10  -6   22134     648
   4 -10   6   22966     678
   4  10   6   22290     624
  -4  10  -6   21789     633
   4 -10  -6   21975     668
   5  10  -6     110     111
   5  10  -6       6      97
  -5  10   6      83     142
   5  10   6      47     114
  -5  10  -6      59     140
   5 -10  -6      12     107
   6  10  -6   27256     780
   6  10  -6   25809     729
  -6  10   6   25652     734
   6  10   6   26051     748
  -6  10  -6   24804     754
   0  11   6     849     388
   0  11  -6     799     389
   0 -11  -6     876     380
  -1  11   6       1     140
  -1 -11  -6      73      93
   1  11  -6      89     111
   1  11   6      75     113
   1 -11  -6     156      93
  -1  11  -6      50     141
   2  11  -6    4184     284
  -2  11   6    4572     319
   2 -11   6    4211     289
   2  11   6    4321     284
   2 -11  -6    4327     290
  -2  11  -6    4334     318
   3 -11   6   16300     507
  -3  11   6   16129     493
   3  11  -6   15725     470
  -3  11  -6   16190     496
   3 -11  -6   15565     498
   3  11   6   15131     472
   4 -11   6    1307     213
   4  11  -6    1445     181
  -4  11   6    1618     227
  -4  11  -6    1683     239
   4 -11  -6    1787     196
   4  11   6    1338     200
   5 -11   6       0     138
  -5  11   6     115     155
   5  11  -6       0     103
   5  11  -6     273     113
  -5  11  -6      83     154
   5 -11  -6      81     117
   5  11   6      12     122
   0  12  -6   12174     230
   0  12   6   12536     227
   0 -12  -6   13522     183
   1  12  -6      38     118
   1  12   6      23     121
   1 -12  -6       6      95
   2 -12   6    4901     261
   2  12  -6    4497     261
  -2  12   6    4627     302
   2 -12  -6    4715     260
   2  12   6    4107     252
  -2  12  -6    4914     307
  -3  12   6    2107     253
   3 -12   6    1883     219
   3  12  -6    2074     197
  -3  12  -6    2191     253
   3 -12  -6    1916     207
   3  12   6    2145     206
  -4  12   6    9962     405
   4 -12   6   10326     411
   4  12  -6    9949     372
   4  12   6    9786     377
   4 -12  -6    9803     391
  -4  12  -6   10180     408
   0  13  -6    1986     371
   0  13   6    1773     371
  -1  13   6       3     160
   1  13  -6       1     125
   1  13   6       1     129
   1 -13  -6     108     108
   2  13  -6     260     134
  -2  13   6     137     173
   2 -13  -6     412     119
  -2  13  -6     277     178
   2  13   6     265     138
  -3  13   6    6628     353
   3 -13   6    7401     332
   3  13  -6    6547     301
   3  13   6    6839     316
  -3  13  -6    6769     359
   3 -13  -6    7151     318
   4  13  -6       7     138
  -4  13   6       3     180
   4 -13   6       2     141
   0  14  -6   18212     535
   0  14   6   19029     529
   1  14  -6     288     154
  -1  14   6      67     185
  -1  14  -6      48     188
   1  14   6     387     159
   1 -14  -6     444     129
  -2  14   6    4217     324
   2  14  -6    4784     276
   2 -14  -6    4987     259
  -2  14  -6    4649     333
   2  14   6    4686     272
   0   0   7       4      35
  -1   0  -7       1      47
  -1   0   7       2      30
   1   0  -7       2      19
   1   0   7       1      31
   2   0  -7     193      16
   3   0   7       7      45
   3   0   7      44      53
   3   0  -7      13      40
   3   0  -7       6      28
  -3   0  -7      14      55
   3   0  -7      37      35
   4   0  -7       1      33
   4   0   7       1      55
   4   0   7       1      61
   4   0  -7       2      48
   4   0  -7       2      42
   5   0  -7       3      60
   5   0   7      33      80
  -5   0  -7      15      97
  -6   0  -7      14     109
   6   0  -7      11      62
   6   0  -7       1      69
   6   0   7      38      80
   6   0   7      17      73
   7   0  -7      79      78
   7   0  -7      13      83
   7   0   7      14      89
  -7   0  -7       0     119
   7   0   7       6      86
   8   0  -7     402     160
   8   0   7     321     183
  -1  -1  -7    5414     193
   1  -1   7    6460     202
   1   1  -7    6598     195
  -1  -1   7    6482     188
   2  -1   7    9301     242
   2   1  -7    9447     208
   2   1  -7    9332     238
  -2  -1  -7   10574     252
   2  -1   7    9915     213
   2  -1  -7   10097     207
   2  -1  -7   10534     235
  -2  -1   7    9415     225
   2  -1  -7   10074     233
   2   1   7   10244     213
   2   1   7   10657     247
   3  -1   7    5119     201
   3   1  -7    5287     190
  -3  -1  -7    4987     210
   3   1  -7    5393     168
   3  -1   7    5054     177
   3   1   7    5151     199
   3  -1  -7    5215     187
   3   1   7    4991     175
  -3   1  -7    5303     222
   3  -1  -7    5074     181
   3  -1  -7    5002     166
   4   1  -7   88363    2269
   4  -1   7   90465    2286
   4   1  -7   89999    2126
   4  -1   7   88844    2127
   4   1   7   88602    2129
   4  -1  -7   87227    2260
  -4   1  -7   89076    2279
   4   1   7   87320    2279
   4  -1  -7   89160    2123
   4  -1  -7   89988    2269
   5   1  -7    2063     126
   5  -1   7    1733     157
  -5  -1  -7    1405     189
   5  -1  -7    1682     122
   5  -1  -7    1722     130
  -5   1  -7    1851     207
   5   1   7    1683     152
   5  -1  -7    2094     142
   6   1  -7   42427    1156
   6   1  -7   43149    1083
   6  -1   7   43575    1090
   6  -1   7   43050    1166
  -6  -1  -7   42883    1174
   6  -1  -7   43248    1084
   6   1   7   42771    1087
   6  -1  -7   42745    1153
   6   1   7   43330    1158
  -6   1  -7   43970    1181
   7   1  -7     306      99
   7   1  -7     673     122
  -7  -1  -7     402     123
   7  -1   7     140      96
   7  -1   7     408     104
  -7   1  -7     435     139
   7  -1  -7     252      99
   7  -1  -7     404      91
   7   1   7     534      99
   8   1  -7   33469     911
   8   1  -7   33243     983
   8  -1   7   33398     915
   8  -1  -7   34199     984
   8   1   7   33632     919
   8  -1  -7   33896     914
   0  -2  -7   12145    1289
   0  -2   7   12757    1298
   1  -2   7   95814    2525
   1   2  -7   99179    2365
  -1   2  -7   97012    2626
   1   2   7   96307    2336
  -1  -2   7   98202    2542
   1   2   7   95871    2517
   1  -2  -7   95874    2548
   1  -2  -7   98312    2524
   2   2  -7   12780     243
   2  -2   7   10385     217
   2   2  -7   12842     211
  -2  -2  -7    9957     249
   2   2   7   10455     247
   2  -2  -7   11304     239
   2  -2  -7   11568     213
  -2   2  -7   10590     260
   2   2   7   10054     215
   3   2  -7   61711    1575
   3  -2   7   59866    1470
   3  -2   7   59791    1585
  -3  -2  -7   61206    1578
   3   2  -7   60920    1467
   3   2   7   61745    1580
  -3   2  -7   61831    1585
   3   2   7   61114    1470
   3  -2  -7   61788    1578
   3  -2  -7   61524    1563
   3  -2  -7   59718    1465
   4   2  -7    2795     121
   4  -2   7    2762     141
  -4  -2  -7    2922     174
   4   2  -7    2656     136
   4  -2   7    2842     159
   4  -2  -7    2974     125
   4  -2  -7    2790     133
   4   2   7    2680     134
  -4   2  -7    2801     200
   4   2   7    2929     150
   4  -2  -7    2818     128
  -5  -2  -7   30811     881
   5  -2   7   32546     874
   5   2  -7   31506     805
   5   2  -7   31742     866
   5  -2   7   31599     810
   5  -2  -7   32593     858
   5   2   7   31384     811
  -5   2  -7   32085     885
   5  -2  -7   31466     803
   5   2   7   32643     864
   5  -2  -7   31637     852
   6  -2   7    1434     155
   6  -2   7    1243     155
  -6  -2  -7    1692     193
   6   2  -7    1635     144
   6   2  -7    1664     125
   6  -2  -7    1545     137
  -6   2  -7    1756     215
   6   2   7    1207     145
   6  -2  -7    1451     139
   6   2   7    1441     144
  -7  -2  -7    5727     292
   7  -2   7    5842     254
   7   2  -7    5995     229
   7   2  -7    5671     262
   7  -2   7    5378     266
   7   2   7    5921     244
  -7   2  -7    5762     303
   7  -2  -7    5386     256
   7  -2  -7    5641     245
   8  -2   7    2538     211
   8   2  -7    2105     179
   8   2   7    2361     200
  -8   2  -7    2387     300
   8  -2  -7    2855     203
   0   3   7  225815    3146
   0  -3  -7  222245    3614
   0  -3   7  234152    3414
   0   3  -7  237099    3489
   0   3  -7  226144    3179
   1   3  -7     251      30
  -1   3   7     235      39
   1  -3   7     173      45
   1   3  -7     237      43
  -1   3  -7     173      33
   1   3   7     133      34
   1  -3  -7     188      33
  -1   3  -7     206      53
   1  -3  -7     170      39
  -1  -3   7     292      35
   1   3   7     111      44
  -2  -3  -7   60935    1657
   2  -3   7   60589    1671
   2  -3   7   61451    1549
   2   3   7   62413    1547
   2  -3  -7   60068    1665
  -2   3  -7   60061    1662
   2   3   7   62785    1666
   3  -3   7    4384     163
  -3  -3  -7    4183     184
   3   3  -7    4587     147
   3  -3  -7    4886     168
   3   3   7    4418     155
   3  -3  -7    4897     153
  -3   3  -7    4578     203
   3   3   7    4509     177
   3  -3  -7    4615     154
   4   3  -7   15137     406
   4  -3   7   15576     417
  -4  -3  -7   15792     457
   4  -3   7   15618     456
   4   3   7   15766     440
   4  -3  -7   16290     441
   4   3   7   15619     413
  -4   3  -7   15910     472
   4  -3  -7   15986     407
   4  -3  -7   15837     427
   5  -3   7       0      78
  -5  -3  -7      24     100
   5  -3   7       0      78
   5   3  -7      11      54
   5   3  -7       6      66
   5   3   7      34      70
   5  -3  -7       1      58
  -5   3  -7       0     116
   5   3   7      18      69
   5  -3  -7       1      61
  -6  -3  -7      93     107
   6   3  -7      37      63
   6  -3   7      70      84
   6   3  -7      64      81
   6  -3   7       1      83
   6  -3  -7       2      67
   6  -3  -7     113      74
  -6   3  -7       0     123
   6   3   7       5      75
   6  -3  -7       6      61
   7  -3   7     486     114
   7   3  -7     280     104
  -7  -3  -7     275     124
   7   3  -7     367      83
   7  -3  -7     441      97
   7   3   7     288      96
  -7   3  -7     180     145
   8   3  -7    1594     162
   8  -3  -7    1737     194
   0  -4  -7    1976     382
   0  -4  -7    2211     361
   0   4  -7    2098     382
   0   4   7    2144     342
   0   4  -7    2404     342
   0  -4   7    2219     372
   1  -4   7   12889     321
   1   4  -7   12615     319
  -1   4   7   12295     288
  -1  -4   7   13514     304
   1   4   7   12648     290
   1  -4  -7   12849     298
  -1   4  -7   12497     323
   1   4   7   12556     323
   2  -4   7     480     200
  -2   4   7     674     176
   2  -4  -7     579     165
   2   4   7      31     173
   2   4   7      11     196
   3  -4   7       1      61
  -3  -4  -7      68      72
   3   4  -7       0      47
   3  -4   7       1      32
   3   4  -7      73      42
   3   4   7       7      52
   3   4   7      21      55
  -3   4  -7      76      93
   3  -4  -7      53      37
   3  -4  -7      15      52
   3  -4  -7       4      46
   4   4  -7       0      46
   4  -4   7       9      65
   4  -4   7      16      74
   4   4  -7      51      21
  -4  -4  -7      18      83
   4  -4  -7      11      52
   4   4   7       4      59
   4  -4  -7      11      60
   4   4   7       4      60
   4  -4  -7      22      46
  -4   4  -7       9     110
   5   4  -7    1961     130
   5  -4   7    1658     171
  -5  -4  -7    1726     195
   5   4  -7    1884     151
   5  -4   7    1901     162
   5   4   7    2159     150
   5   4   7    2058     149
   5  -4  -7    2054     149
  -5   4  -7    2150     221
   5  -4  -7    1975     144
   6  -4   7     384     110
   6  -4   7     446     106
   6   4  -7     461      79
  -6  -4  -7     586     127
   6   4  -7     496     100
   6   4   7     486      95
   6  -4  -7     551      98
  -6   4  -7     492     139
   6  -4  -7     404      88
   7   4  -7    3392     193
   7  -4   7    3318     237
  -7  -4  -7    4034     265
   7  -4   7    3825     231
   7   4  -7    3471     231
   7  -4  -7    3829     217
  -7   4  -7    3572     285
   7   4   7    3765     216
   8  -4   7      32     126
   0   5  -7   74607     240
   0  -5  -7   74306     217
   0  -5  -7   72508     244
   0   5   7   72812     219
   0   5  -7   77375     222
   0  -5   7   71483     229
   1  -5   7    1937     135
   1   5  -7    1953     132
   1   5  -7    1935     119
  -1   5   7    1713     129
   1  -5  -7    1856     133
   1  -5  -7    1887     101
   1   5   7    1761     126
  -1   5  -7    1739     126
   1   5   7    1763     138
  -1   5  -7    1799     142
   2   5  -7   68096    1602
  -2  -5  -7   66823    1704
  -2   5   7   68077    1602
   2  -5   7   68424    1726
   2   5  -7   69167    1716
  -2   5  -7   65310    1601
  -2   5  -7   68172    1714
   2  -5  -7   69272    1727
   2   5   7   69412    1719
   2   5   7   68918    1604
   2  -5  -7   68673    1682
   3  -5   7     149      69
   3   5  -7     157      67
   3  -5   7     241      79
  -3  -5  -7     275      81
   3   5  -7     143      55
  -3   5  -7     171      96
   3  -5  -7     129      65
   3   5   7     257      68
   3   5   7     245      63
   4  -5   7     727     127
   4   5  -7     759      96
   4  -5   7     900     138
  -4  -5  -7     878     112
   4   5  -7     818      89
  -4   5  -7     894     136
   4  -5  -7     682      85
   4  -5  -7     815      87
   4   5   7     679      88
   4   5   7     751     115
   5  -5   7     205      95
   5   5  -7     272      74
   5   5  -7     253      85
  -5  -5  -7     351     110
   5  -5  -7     305      80
   5  -5  -7     299      83
   5   5   7     352      85
  -5   5  -7     196     129
   6  -5   7    2710     206
   6  -5   7    2485     205
  -6  -5  -7    3114     236
   6   5  -7    2861     170
   6   5  -7    2761     197
   6   5   7    2814     188
   6  -5  -7    2812     189
  -6   5  -7    2892     257
   6  -5  -7    2995     189
   7   5  -7     729     125
   7   5  -7     711     106
   7  -5   7     551     135
   7  -5   7     651     139
  -7   5  -7     678     170
   7  -5  -7     898     164
   7  -5  -7    1076     187
   7   5   7     705     120
   0  -6   7    2281     224
   0   6  -7    1739     224
   0  -6  -7    1996     204
   0   6  -7    1821     237
   0   6   7    1657     224
   0  -6  -7    1720     241
   1   6  -7       4      57
   1   6  -7       3      53
  -1   6   7      24      70
   1  -6   7      67      53
  -1   6  -7      74      64
   1  -6  -7      22      59
   1   6   7      39      55
   1   6   7       1      61
  -1   6  -7      87      63
  -2  -6  -7      20      63
   2   6  -7      39      50
  -2   6   7      47      73
   2  -6   7     224      65
   2   6  -7      63      60
   2  -6  -7     210      15
  -2   6  -7      11      80
   2   6   7       2      62
  -2   6  -7      60      67
   2   6   7       2      63
  -3   6   7    4867     208
   3  -6   7    5200     228
   3   6  -7    5353     191
   3   6  -7    5267     208
  -3  -6  -7    5208     216
   3   6   7    5595     203
  -3   6  -7    4927     212
  -3   6  -7    5001     231
   3   6   7    5315     207
   3  -6  -7    4918     216
   4  -6   7     120      99
   4   6  -7     370      67
  -4  -6  -7     327      95
   4   6  -7     193      77
   4  -6   7     349      86
  -4   6  -7     233     114
   4   6   7     242      83
   4  -6  -7     325      79
   4   6   7     257      71
   5   6  -7     631     106
  -5  -6  -7    1026     181
   5   6  -7     721     116
   5  -6   7     660     117
  -5   6  -7     792     143
   5   6   7     771     143
   5  -6  -7     580     105
   5  -6  -7     788     139
  -6  -6  -7     615     130
   6  -6   7     400     121
   6   6  -7     410      86
   6  -6   7     136     112
   6   6  -7     381     106
  -6   6  -7     213     144
   6   6   7     350      98
   6  -6  -7     396     102
   6  -6  -7     362     107
   7  -6   7     236     127
  -7  -6  -7     521     142
   7   6  -7     342      98
   7  -6   7     379     138
   7   6  -7     480     122
   7   6   7     266     116
   7  -6  -7     197     120
   7  -6  -7     328     112
   0   7  -7   35820     181
   0  -7   7   34784     163
   0   7  -7   36277     178
   0  -7  -7   33788     182
   0   7   7   33929     182
   1   7  -7   13597     318
   1  -7   7   12954     333
  -1   7   7   13403     327
   1   7  -7   12438     328
  -1   7  -7   13023     334
   1  -7  -7   13296     343
  -1   7  -7   13057     324
   1   7   7   12811     318
   2   7  -7   88474    2157
  -2   7   7   86594    2025
   2   7  -7   88463    2025
   2  -7   7   91004    2174
  -2  -7  -7   84541    2139
  -2   7  -7   86793    2025
   2   7   7   89486    2026
   2   7   7   86923    2160
  -2   7  -7   90927    2152
  -3   7   7     261      94
  -3  -7  -7     238      84
   3  -7   7     350      89
   3   7  -7     173      67
   3   7  -7     230      76
  -3   7  -7     242      93
  -3   7  -7     207     103
   3   7   7     294      78
   3  -7  -7     193      80
   3   7   7     328      87
  -4  -7  -7    1030     153
   4   7  -7     773     109
  -4   7   7     709     113
   4   7  -7     652     113
   4  -7   7     731     116
   4  -7  -7     763     106
   4   7   7     813     137
  -4   7  -7     621     126
   5  -7   7    7675     327
   5  -7   7    8397     315
   5   7  -7    7903     282
   5   7  -7    7639     307
  -5  -7  -7    7992     317
   5  -7  -7    8053     310
  -5   7  -7    7575     339
   5   7   7    7825     295
   6   7  -7    5809     246
  -6  -7  -7    5708     294
   6  -7   7    5486     288
   6   7  -7    5438     272
   6  -7   7    5699     299
   6   7   7    5587     260
   6  -7  -7    5948     276
   6  -7  -7    5195     266
   7   7  -7    2236     189
   7  -7   7    1633     253
   7  -7  -7    1524     237
   7  -7  -7    2438     220
   7   7   7    2245     209
   0  -8   7   26498     189
   0   8  -7   26606     197
   0   8   7   25104     213
   0   8  -7   25790     216
   0  -8  -7   25211     210
  -1   8   7    6641     237
   1   8  -7    6628     212
   1  -8   7    6211     215
   1   8  -7    6460     216
   1  -8  -7    6133     225
   1   8   7    6339     214
  -1   8  -7    6219     232
  -1   8  -7    5762     210
   2  -8   7    2200     147
  -2   8   7    2672     174
   2   8  -7    2683     130
   2   8  -7    2850     126
  -2   8  -7    2707     166
  -2   8  -7    2319     135
   2   8   7    1818     137
   2  -8  -7    2424     140
   2   8   7    1995     146
  -3   8   7   43032    1121
   3   8  -7   43799    1116
   3  -8   7   44965    1209
   3   8  -7   43632    1187
   3  -8  -7   41803    1200
  -3   8  -7   43880    1184
   3   8   7   45260    1125
  -3   8  -7   42822    1122
   4  -8   7    2790     200
   4   8  -7    2526     160
  -4   8   7    2398     197
  -4  -8  -7    3063     185
   4   8  -7    2809     178
   4  -8  -7    2450     187
   4   8   7    2662     182
  -4   8  -7    2760     202
   5   8  -7    7779     285
   5   8  -7    7845     310
  -5   8   7    7903     308
   5  -8   7    7136     333
  -5  -8  -7    8076     315
   5  -8  -7    7925     317
   5   8   7    7800     301
  -5   8  -7    7752     318
   6   8  -7    8726     325
  -6  -8  -7    9027     364
   6  -8   7    8852     383
   6   8  -7    8817     354
   6   8   7    8489     342
   6  -8  -7    9154     362
  -7  -8  -7     170     149
   0  -9  -7    5383     208
   0   9  -7    5357     220
   0   9   7    5471     224
   0   9  -7    5102     180
   1   9  -7    5697     241
   1   9  -7    5514     248
  -1   9   7    5157     267
   1  -9   7    6041     249
   1  -9  -7    5570     260
   1   9   7    5716     254
  -1   9  -7    5449     269
  -1   9  -7    5415     244
   2   9  -7    1277     137
   2   9  -7    1210     118
   2  -9   7     983     106
  -2   9   7    1691     190
   2  -9  -7    1486     146
  -2   9  -7    1712     183
   2   9   7    1324     137
   2   9   7    1287     147
   3  -9   7    2680     196
  -3   9   7    2579     210
   3   9  -7    2644     164
   3   9  -7    2547     163
  -3   9  -7    2765     210
   3   9   7    2516     178
   3  -9  -7    2351     180
   4   9  -7   18929     565
  -4   9   7   19045     546
   4  -9   7   20200     597
   4   9  -7   19387     535
   4  -9  -7   19043     580
  -4   9  -7   18849     551
   4   9   7   19473     544
  -5   9   7    3891     240
   5   9  -7    3225     205
   5   9  -7    3542     222
   5  -9   7    2910     247
  -5   9  -7    3721     243
   5   9   7    3297     228
   5  -9  -7    3589     224
  -6   9   7   34615     965
   6   9  -7   35709     961
   6   9  -7   36378    1026
   6  -9   7   37254    1061
   6   9   7   36101     967
  -6   9  -7   35234     971
   6  -9  -7   36083    1038
   0  10  -7     356     228
   0  10   7     498     233
   0 -10  -7     520     217
   1  10  -7     800     112
  -1  10   7     589     135
   1 -10   7     810      95
   1  10   7     778     115
  -1  10  -7     679     133
   1 -10  -7     767     105
   2  10  -7    4145     193
   2  10  -7    3996     174
  -2  10   7    4156     229
   2 -10   7    4061     204
   2  10   7    3610     193
  -2  10  -7    4171     228
   2 -10  -7    4082     199
   3 -10   7   11802     405
   3  10  -7   11337     374
  -3  10   7   11540     393
   3  10  -7   11571     368
  -3  10  -7   11097     391
   3  10   7   11400     373
   3 -10  -7   11082     394
   4 -10   7    2040     221
  -4  10   7    2716     230
   4  10  -7    2258     181
   4  10  -7    2309     189
   4 -10  -7    2453     201
  -4  10  -7    2501     234
   4  10   7    2140     196
   5  10  -7      27     101
   5 -10   7       5     128
  -5  10   7     210     142
   5  10  -7     178     113
  -5  10  -7     335     151
   5  10   7     115     115
   5 -10  -7      27     108
   6  10  -7     357     138
   6  10  -7     193     115
  -6  10   7     344     155
   0  11   7    3154     495
   0 -11  -7    3469     507
   0  11  -7    2706     498
  -1  11   7      72     135
   1  11  -7      91     107
   1 -11  -7     360      99
   1  11   7      49     112
  -1  11  -7      30     138
   2 -11   7    8102     288
   2  11  -7    7924     278
  -2  11   7    8725     316
  -2  11  -7    8849     317
   2  11   7    8038     277
   2 -11  -7    8220     288
  -3  11   7    1162     165
   3  11  -7    1181     165
   3 -11   7    1102     141
   3  11   7    1158     131
  -3  11  -7    1672     230
   3 -11  -7    1382     182
   4  11  -7    9612     355
   4 -11   7   10422     399
   4  11  -7    9649     359
  -4  11   7    9772     379
   4 -11  -7    9687     374
   4  11   7    9875     361
  -4  11  -7    9623     379
  -5  11   7     563     164
   5 -11   7     406     156
   5  11  -7     214     119
   5  11  -7     575     135
  -5  11  -7     756     173
   5  11   7     387     137
   5 -11  -7     530     130
   0  12  -7    2017     145
   0  12   7    2329     146
   1 -12  -7     106     102
   1  12   7       3     117
   2  12  -7     564     121
   2 -12   7     485     115
  -2  12   7     207     157
  -2  12  -7     520     164
   2 -12  -7     830     111
   2  12   7     473     122
   3  12  -7    8703     347
   3 -12   7    9014     378
  -3  12   7    8691     381
   3 -12  -7    8654     369
  -3  12  -7    8814     387
   3  12   7    8701     352
   4  12  -7     651     126
  -4  12   7     536     174
   4 -12   7     596     154
  -4  12  -7     489     176
   4  12   7     638     139
   4 -12  -7     691     133
   0  13  -7   14827     810
   0  13   7   16672     810
  -1  13   7       9     161
   1  13  -7     237     137
   1  13   7     257     137
   1 -13  -7     637     119
  -1  13  -7      48     165
   2  13  -7    5335     264
  -2  13   7    5507     308
   2  13   7    5338     268
  -2  13  -7    5319     315
   2 -13  -7    6032     263
   3  13  -7    1016     145
  -3  13   7     803     199
   3 -13   7    1399     164
   3 -13  -7    1388     199
  -3  13  -7     966     198
   3  13   7    1170     153
   0  14  -7      61     167
   0  14   7     139     161
   1  14  -7       1     137
   1  14   7       1     137
   1 -14  -7      39     116
  -2  14   7      71     179
   2  14  -7     111     136
   2  14   7     169     138
   2 -14  -7     580     124
  -2  14  -7     131     183
   0   0   8    2149      37
   0   0  -8    2792      44
   1   0  -8   10236     296
   1   0   8    9385     301
  -1   0   8    9716     293
  -1   0  -8   10140     306
   2   0   8    3753     179
   2   0   8    3633     144
  -2   0  -8    3806     193
   2   0  -8    3753     163
   2   0  -8    3729     137
  -3   0  -8     979     138
   3   0  -8    1193      75
   3   0  -8    1038      79
   3   0   8    1249     115
   3   0   8    1195      91
   3   0  -8    1264      95
   4   0   8   72696    1891
   4   0  -8   73275    1754
   4   0  -8   74026    1871
   4   0  -8   72773    1875
   4   0   8   72970    1759
   5   0  -8    2309     137
   5   0   8    2082     161
   5   0  -8    2842     153
  -5   0  -8    2519     207
   6   0  -8   39732     998
   6   0   8   38542    1075
   6   0  -8   38705    1065
  -6   0  -8   39849    1096
   6   0   8   38896    1004
   7   0  -8    1418     138
   7   0   8    1672     170
  -7   0  -8    1218     222
   7   0  -8    1394     161
   8   0  -8   27143     741
   8   0   8   27156     750
   8   0  -8   26316     798
   0  -1   8    7135      70
   0  -1  -8    6743      69
   0   1   8    6817      73
   1   1  -8   34301     868
   1  -1   8   33444     874
  -1  -1  -8   32475     869
  -1   1   8   31624     868
  -1  -1   8   33756     864
  -1   1  -8   33664     872
   1  -1  -8   33536     863
   2   1  -8    3096     212
  -2  -1   8    2887     233
   2   1   8    1543     256
   2   1   8    1537     218
  -3  -1  -8    3444     193
   3   1  -8    3784     162
   3  -1   8    4236     179
   3   1  -8    3778     137
   3  -1   8    3988     149
   3  -1  -8    4149     159
   3  -1  -8    3891     153
   3   1   8    3638     175
   3  -1  -8    3808     137
   3   1   8    3478     146
  -3   1  -8    4033     202
   4  -1   8      65      68
  -4  -1  -8     126      89
   4  -1   8      69      58
   4   1  -8      13      44
   4   1  -8      24      52
   4  -1  -8      65      41
   4   1   8       4      57
   4  -1  -8      47      52
   4   1   8      85      69
  -4   1  -8      28      90
   4  -1  -8      86      45
  -5  -1  -8    8837     351
   5   1  -8    8980     312
   5  -1   8    8954     303
   5  -1   8   10247     334
   5   1  -8    8781     284
   5   1   8    8743     298
   5  -1  -8    8939     298
   5   1   8   10679     332
   5  -1  -8    9394     309
   5  -1  -8    8556     284
  -5   1  -8    8913     358
   6   1  -8     813     132
  -6  -1  -8     519     129
   6  -1   8    1048     145
   6  -1   8     757     106
   6   1  -8    1034     111
   6  -1  -8     702     113
   6   1   8     560     105
  -6   1  -8     750     140
   6   1   8     784     136
   6  -1  -8     612     124
   7   1  -8    3226     182
   7  -1   8    3196     212
  -7  -1  -8    2840     240
   7   1  -8    2833     207
   7  -1   8    3664     206
   7  -1  -8    3615     189
  -7   1  -8    3337     260
   7   1   8    3648     204
   7  -1  -8    3171     197
   8  -1   8     109     113
   8  -1  -8      85     102
   0  -2   8  129654    4589
   0   2   8  114802    4562
  -1  -2  -8     414      84
   1  -2   8     344      58
   1   2  -8     449      66
  -1  -2   8     486      63
  -1   2  -8     425      84
   1   2   8     319      57
   2  -2   8    2140      88
   2   2  -8    1651      96
   2  -2   8    2005     110
   2   2  -8    1595      68
  -2  -2  -8    2159     123
   2  -2  -8    1987      80
   2   2   8    1986      80
   2  -2  -8    2027      94
   2  -2  -8    2064      85
  -2  -2   8    1684      78
   2   2   8    2329     111
  -2   2  -8    2263     128
  -3  -2  -8    3106     165
   3  -2   8    3110     155
   3   2  -8    2878     142
   3  -2   8    2999     130
   3   2  -8    2894     113
   3   2   8    3160     149
   3  -2  -8    3147     130
   3  -2  -8    2905     116
   3   2   8    3148     123
  -3   2  -8    3233     191
   3  -2  -8    3107     131
   4  -2   8   55653    1524
   4  -2   8   54953    1411
  -4  -2  -8   56929    1521
   4   2  -8   55583    1509
   4   2  -8   56903    1407
   4   2   8   56127    1411
  -4   2  -8   56851    1526
   4   2   8   56866    1516
   4  -2  -8   55619    1497
   4  -2  -8   56006    1405
   4  -2  -8   57438    1511
  -5  -2  -8     299     113
   5  -2  -8     352      69
   5  -2  -8     269      64
  -5   2  -8     308     124
   6  -2   8    2512     184
  -6  -2  -8    2591     225
   6   2  -8    2499     175
   6   2  -8    2523     147
   6  -2   8    2820     176
  -6   2  -8    2765     249
   6  -2  -8    2830     161
   6  -2  -8    2691     163
   6   2   8    2633     165
   6   2   8    2376     179
   7  -2   8     122      97
   7   2  -8       2      90
   7   2  -8      21      69
  -7  -2  -8       1     117
   7  -2   8      24      91
   7   2   8      35      87
   7  -2  -8      48      84
  -7   2  -8      27     140
   7  -2  -8     107      89
   8   2  -8   17149     514
   8  -2  -8   16282     523
   0   3  -8    2186     111
   0   3  -8    2022      81
   0  -3   8    1905     100
  -1  -3  -8    9414     276
   1   3  -8    9187     279
  -1   3   8    8909     239
   1   3  -8    8871     238
   1  -3   8    9104     280
  -1  -3   8    9194     264
   1  -3  -8    9266     279
   1   3   8    9244     281
  -1   3  -8    8426     239
  -1   3  -8    9388     284
   1   3   8    9684     241
   2  -3   8   11621     360
  -2  -3  -8   10688     356
   2  -3   8   12057     321
   2   3   8   10857     315
   2  -3  -8    9174     352
  -2   3  -8   11746     364
   2   3   8   10889     355
   3  -3   8   16606     453
   3   3  -8   16803     447
  -3  -3  -8   16482     500
   3  -3  -8   17081     492
   3   3   8   16639     494
   3  -3  -8   16727     446
   3   3   8   16415     451
  -3   3  -8   17582     511
   3  -3  -8   17125     475
   4  -3   8    3793     174
   4  -3   8    4031     197
  -4  -3  -8    4085     217
   4   3  -8    3853     153
   4   3  -8    3573     169
   4  -3  -8    4072     174
   4   3   8    3736     184
  -4   3  -8    4276     240
   4   3   8    3676     164
   4  -3  -8    3987     164
   4  -3  -8    3856     157
   5  -3   8    2571     184
   5  -3   8    2509     173
   5   3  -8    2607     161
  -5  -3  -8    2259     218
   5   3  -8    2678     138
   5  -3  -8    2536     154
   5  -3  -8    2548     151
   5  -3  -8    2654     146
  -5   3  -8    2472     228
   5   3   8    2684     156
  -6  -3  -8     376     122
   6  -3   8     145      93
   6  -3   8     434     100
   6   3  -8     362      73
   6   3  -8     374      91
  -6   3  -8     376     137
   6  -3  -8     409      86
   6  -3  -8     296      73
   6  -3  -8     364      86
   6   3   8     359      86
   7   3  -8     909     166
   7  -3   8     733     133
  -7  -3  -8    1335     208
   7   3  -8    1197     133
   7  -3   8    1261     182
   7   3   8    1356     154
  -7   3  -8     832     172
   7  -3  -8    1161     161
   8   3  -8    2663     185
   8  -3  -8    2580     216
   0   4  -8   46288    3140
   0   4  -8   47820    2916
   0   4   8   52364    2881
   0  -4   8   49815    3240
   0  -4  -8   50854    3081
  -1  -4  -8     107      63
  -1   4   8      48      54
   1  -4   8      52      56
   1   4  -8      81      57
   1   4   8      79      60
   1  -4  -8      28      43
   1  -4  -8      26      55
  -1   4  -8      96      66
  -1  -4   8     105      47
   1   4   8      74      49
   2  -4   8   74126    1823
   2   4  -8   70197    1812
  -2  -4  -8   72503    1806
  -2   4   8   71803    1685
   2   4  -8   73511    1695
   2   4   8   72825    1818
   2   4   8   73301    1689
   2  -4  -8   73402    1822
  -2   4  -8   73941    1814
   3  -4   8    5036     189
  -3  -4  -8    4918     214
   3   4  -8    4898     169
   3  -4  -8    4690     173
   3  -4  -8    4750     199
   3   4   8    4844     179
   3   4   8    5063     203
  -3   4  -8    5108     227
   3  -4  -8    4707     179
   4  -4   8    1596     141
   4   4  -8    1431     106
   4   4  -8    1280     115
   4  -4   8    1593     148
  -4  -4  -8    1552     176
  -4   4  -8    1804     195
   4  -4  -8    1375     123
   4  -4  -8    1471     109
   4   4   8    1370     125
   4  -4  -8    1322     121
   4   4   8    1289     138
  -5  -4  -8       4     104
   5  -4   8       6      81
   5  -4   8      34      81
   5   4  -8      11      53
   5   4  -8       3      64
   5   4   8      58      72
   5  -4  -8      54      71
   5  -4  -8       4      59
   5   4   8      42      70
  -5   4  -8       0     125
   6   4  -8    6023     271
   6  -4   8    6033     261
  -6  -4  -8    6398     307
   6  -4   8    5739     281
   6   4  -8    5983     238
   6  -4  -8    6093     261
   6  -4  -8    5967     247
   6   4   8    6188     256
  -6   4  -8    6237     326
   7  -4   8     166     110
   7   4  -8     310     105
  -7  -4  -8     459     134
   7  -4   8     347     116
   7   4   8     377      96
  -7   4  -8     276     156
   7  -4  -8     312     106
   0  -5   8    2265     669
   0  -5  -8    1833     652
   0   5  -8    1688     672
   0   5   8    2180     622
   0   5  -8    2012     621
   1   5  -8    6567     260
  -1   5   8    6342     237
   1   5  -8    6340     229
   1  -5   8    6570     258
  -1  -5  -8    6189     246
   1   5   8    6812     235
  -1   5  -8    6693     264
  -1   5  -8    6284     234
   1  -5  -8    6240     228
   1   5   8    6518     261
  -2  -5  -8     283     112
   2  -5   8      48      83
   2   5  -8     271      94
  -2   5   8     245     108
   2   5  -8     313      81
   2   5   8     309     115
  -2   5  -8     151     125
   2   5   8     280      95
  -2   5  -8     126     100
   2  -5  -8     249      65
   2  -5  -8     260     103
   3  -5   8    2042     146
   3   5  -8    1739     125
  -3  -5  -8    1673     152
   3   5  -8    1868     104
  -3   5  -8    1801     172
   3  -5  -8    1588     132
   3   5   8    1705     137
   3   5   8    1657     120
   4  -5   8      12      74
   4   5  -8       0      51
   4   5  -8      15      65
  -4  -5  -8     127      96
   4  -5   8       2      79
   4   5   8       2      66
   4  -5  -8       2      67
  -4   5  -8      17     118
   4   5   8       2      66
   4  -5  -8      10      61
   5   5  -8    3375     164
   5   5  -8    3351     185
   5  -5   8    3382     197
   5  -5   8    3077     212
  -5  -5  -8    3639     224
  -5   5  -8    3415     251
   5   5   8    3598     183
   5  -5  -8    3380     178
   5  -5  -8    3471     189
   6   5  -8     513     105
   6  -5   8     286     113
  -6  -5  -8     656     136
   6  -5   8     553     118
   6   5  -8     572      89
   6  -5  -8     517     105
   6   5   8     503     100
  -6   5  -8     324     150
   6  -5  -8     443      95
   7   5  -8     471      97
  -7  -5  -8     605     145
   7  -5   8     641     133
   7  -5   8     282     123
   7   5  -8     433     112
  -7   5  -8     343     164
   7   5   8     422     113
   7  -5  -8     551     120
   0   6   8   41791    2017
   0  -6  -8   42724    2171
   0   6  -8   39871    2018
   0  -6   8   39907    2155
   0   6  -8   40434    2157
   1   6  -8    2733     149
   1   6  -8    2804     139
  -1   6   8    2677     157
   1  -6   8    2952     153
  -1   6  -8    3003     151
   1   6   8    2810     148
   1  -6  -8    2263     154
  -1   6  -8    3093     164
   1   6   8    2544     160
   2   6  -8  102244    2533
  -2   6   8  102615    2533
  -2  -6  -8  100420    2693
   2  -6   8  101638    2724
   2   6  -8  105406    2709
  -2   6  -8  106222    2708
  -2   6  -8   96916    2533
   2   6   8  101314    2715
   2   6   8  102564    2535
   3   6  -8      55      55
   3  -6   8     149      79
   3   6  -8     110      69
  -3  -6  -8      35      85
  -3   6   8      49      79
  -3   6  -8      78      98
  -3   6  -8      64      79
   3   6   8      35      72
   3  -6  -8      15      64
   3   6   8      62      70
  -4  -6  -8      24      96
   4  -6   8      12      80
   4   6  -8       6      71
   4   6  -8      73      61
   4   6   8      11      68
   4  -6  -8       9      70
   4   6   8       6      76
  -4   6  -8       1     111
   5   6  -8     516      80
   5  -6   8     180     106
  -5  -6  -8     674     123
   5  -6   8     501     114
   5   6  -8     543      98
   5  -6  -8     520     100
  -5   6  -8     463     140
   5  -6  -8     504      90
   5   6   8     479      96
   6   6  -8    5472     229
   6  -6   8    5176     274
   6  -6   8    5334     262
  -6  -6  -8    5608     290
   6   6  -8    5380     258
   6  -6  -8    5248     254
   6  -6  -8    4835     244
  -6   6  -8    5256     302
   6   6   8    5648     245
   7  -6   8    1627     220
   7  -6   8    1466     221
  -7  -6  -8    2136     243
   7   6  -8    1774     201
   7   6  -8    1618     165
   7   6   8    1541     191
   7  -6  -8    1552     212
   7  -6  -8    1686     192
   0   7  -8    1290     192
   0  -7  -8    1872     194
   0   7   8    1925     191
   0   7  -8    1495     182
   0  -7   8    1426     171
   1   7  -8      30      63
   1  -7   8      69      63
  -1   7   8      18      85
   1   7  -8       4      62
   1   7   8      47      70
   1   7   8      19      66
  -1   7  -8       1      73
  -1   7  -8     151      81
   1  -7  -8       7      65
   2   7  -8    2570     173
   2   7  -8    2598     157
   2  -7   8    1177     187
  -2  -7  -8    1728     167
  -2   7   8    2416     189
   2   7   8    1638     171
  -2   7  -8    1688     190
  -2   7  -8    1515     182
   2   7   8    1685     177
   3  -7   8   57942    1493
   3   7  -8   56338    1381
  -3   7   8   55317    1380
   3   7  -8   56467    1477
  -3  -7  -8   57228    1468
   3  -7  -8   55286    1488
  -3   7  -8   58884    1477
   3   7   8   59009    1387
   3   7   8   57270    1474
  -3   7  -8   55046    1382
  -4  -7  -8      68      97
  -4   7   8       3      91
   4   7  -8       1      77
   4   7  -8       1      60
   4  -7   8       1      90
  -4   7  -8      21      96
  -4   7  -8       5     110
   4  -7  -8       8      76
   4   7   8      10      81
   5  -7   8      17     106
  -5  -7  -8     256     114
   5   7  -8     232      80
   5   7  -8     272      99
  -5   7  -8     268     128
   5   7   8     183      99
   5  -7  -8     267      94
  -6  -7  -8     415     133
   6  -7   8     174     124
   6   7  -8     303     113
   6   7  -8     260      86
   6  -7   8      69     132
   6   7   8     324     107
   6  -7  -8     137     114
   6  -7  -8     262     104
   7   7  -8    1099     159
   7  -7   8     882     172
   7   7   8     933     186
   7  -7  -8     729     149
   7  -7  -8    1311     192
   0   8  -8    1110     177
   0  -8  -8    1224     197
   0   8  -8    1140     195
   0   8   8    1023     197
   0  -8   8    1249     171
   1  -8   8    7976     331
   1   8  -8    7697     314
   1   8  -8    8226     332
  -1   8   8    7406     331
   1   8   8    8250     318
  -1   8  -8    7371     331
   1   8   8    8727     340
  -1   8  -8    7484     333
   1  -8  -8    8071     343
   2  -8   8    2468     182
  -2   8   8    2872     199
   2   8  -8    2809     165
   2   8  -8    2569     160
  -2   8  -8    2592     188
   2   8   8    2647     171
   2   8   8    2740     174
  -2   8  -8    2304     176
   2  -8  -8    2952     174
  -3   8   8    4199     221
   3  -8   8    4317     228
   3   8  -8    4118     190
   3   8  -8    4332     206
   3   8   8    4260     209
  -3   8  -8    4301     223
   3  -8  -8    4212     214
   3   8   8    4252     205
  -3   8  -8    4474     223
   4  -8   8   23942     694
  -4   8   8   22516     633
   4   8  -8   23169     675
   4   8  -8   22574     625
  -4   8  -8   23017     637
   4   8   8   23033     634
   4  -8  -8   22472     680
  -5   8   8    8076     321
   5   8  -8    8415     299
  -5  -8  -8    8764     334
   5  -8   8    7472     349
   5   8  -8    8417     326
   5  -8  -8    7906     327
  -5   8  -8    8387     331
   5   8   8    8544     316
   6   8  -8   17683     528
  -6   8   8   18037     545
  -6  -8  -8   17798     575
   6   8  -8   17873     571
   6  -8   8   17938     599
   6   8   8   17541     538
   6  -8  -8   17486     571
   0   9  -8   30265    3235
   0   9  -8   30991    3050
   0  -9  -8   27933    3260
   0   9   8   29280    3049
   1   9  -8    3883     202
  -1   9   8    3541     228
   1   9  -8    3639     191
   1  -9   8    4227     204
  -1   9  -8    3728     197
   1  -9  -8    3770     214
   1   9   8    3991     204
  -1   9  -8    3887     231
  -2   9   8    1803     133
   2   9  -8    1631     102
   2   9  -8    1733     124
   2  -9   8    1503     110
   2   9   8    1702     140
   2   9   8    1426     108
  -2   9  -8    1446     126
   2  -9  -8    1951     143
   3  -9   8    5863     275
  -3   9   8    5875     271
   3   9  -8    5824     248
   3   9  -8    5736     234
  -3   9  -8    5935     271
   3   9   8    5647     251
   3  -9  -8    5456     260
   4   9  -8      10      75
   4  -9   8       4     111
  -4   9   8       8     117
   4   9  -8      52      91
  -4   9  -8      11     124
   4  -9  -8       3      87
   4   9   8       1      92
   5   9  -8    1337     161
   5   9  -8    1605     182
  -5   9   8    1611     214
   5  -9   8     980     162
   5   9   8    1516     192
   5  -9  -8    1362     180
  -5   9  -8    1838     220
  -6   9   8   11771     418
   6   9  -8   11524     388
   6   9  -8   11395     421
   6   9   8   11614     404
  -6   9  -8   10912     420
   6  -9  -8   10878     423
   0  10   8     550     122
   0 -10  -8     546      92
   0  10  -8     639     117
   1  10  -8    4750     228
   1  10  -8    5040     215
   1 -10   8    4922     231
  -1  10   8    5076     254
  -1  10  -8    4366     259
   1  10   8    5324     230
   1 -10  -8    5226     239
   2 -10   8   13417     455
   2  10  -8   12325     436
   2  10  -8   12590     423
  -2  10   8   13242     447
   2  10   8   12928     425
   2  10   8   13219     452
   2 -10  -8   12262     449
  -2  10  -8   13440     444
   3  10  -8     626     108
  -3  10   8     660     147
   3 -10   8     632     129
   3  10  -8     602     108
   3  10   8     709     123
   3 -10  -8     841     164
  -3  10  -8     757     151
   4  10  -8    9022     334
   4  10  -8    8754     316
  -4  10   8    8586     345
   4 -10   8    9067     369
  -4  10  -8    8795     350
   4 -10  -8    8165     342
   4  10   8    8720     328
   5  10  -8    6559     289
  -5  10   8    5935     304
   5  10  -8    6230     269
   5 -10   8    5782     326
  -5  10  -8    5951     315
   5  10   8    6101     290
   5 -10  -8    5890     299
  -6  10   8   14978     506
   6  10  -8   15366     512
   0 -11  -8    1846     107
   0  11   8    1521     141
   0  11  -8    1774     135
   1  11  -8     853     133
  -1  11   8     732     157
   1  11   8     851     138
  -1  11  -8     735     160
   1 -11  -8    1073     172
   2  11  -8    1172     189
   2 -11   8    1221     192
  -2  11   8     901     237
   2  11   8     934     184
  -2  11  -8    1262     236
   2 -11  -8    1089     187
  -3  11   8    7735     334
   3 -11   8    7649     332
   3  11  -8    7582     294
   3 -11  -8    7567     317
  -3  11  -8    7893     334
   3  11   8    7810     302
   4  11  -8    1703     184
   4  11  -8    2150     199
  -4  11   8    1776     243
   4 -11   8    1442     229
  -4  11  -8    1922     247
   4 -11  -8    1920     208
   4  11   8    1814     205
   5  11  -8    1125     146
   5  11  -8    1703     204
  -5  11   8    1153     181
  -5  11  -8    1400     255
   5  11   8    1191     162
   0 -12  -8    6240     189
   0  12   8    5678     221
   0  12  -8    5507     180
   1  12  -8       0     122
   1  12   8       9     119
   1 -12  -8      16     106
  -2  12   8    7783     367
   2  12  -8    7686     340
  -2  12  -8    8416     380
   2 -12  -8    7998     355
   2  12   8    7757     339
  -3  12   8     680     183
   3  12  -8     866     139
   3 -12   8     812     156
  -3  12  -8     747     183
   3  12   8     902     150
   3 -12  -8     921     188
   4  12  -8    3580     239
   4 -12   8    3412     278
  -4  12   8    3703     289
   4 -12  -8    3797     252
  -4  12  -8    3650     300
   4  12   8    3476     248
   0  13  -8     610     259
   0 -13  -8     751     230
   0  13   8     486     250
   1 -13  -8      30     106
   2  13  -8     284     129
  -2  13   8      15     167
   2  13   8     196     131
   2 -13  -8     319     120
  -2  13  -8      61     174
   3 -13   8    2976     248
  -3  13   8    2066     282
   3  13  -8    2844     222
   3 -13  -8    2999     226
   3  13   8    2878     231
  -3  13  -8    2049     292
   0  14  -8   20122     557
   0  14   8   19996     549
   1  14   8      24     135
   1 -14  -8      62     115
   2  14  -8    5416     295
  -2  14   8    4792     341
  -2  14  -8    5315     351
   2  14   8    5682     304
   2 -14  -8    5776     301
   0   0   9      20      39
   0   0  -9      28      46
   1   0  -9      18      39
  -1   0  -9      65      56
  -1   0   9      13      38
   1   0   9       0      48
   3   0   9       7      59
   3   0  -9       7      46
   3   0   9       3      46
   3   0  -9       2      35
  -3   0  -9       3      62
  -4   0  -9      51      80
   4   0  -9      39      45
   4   0  -9       3      54
   4   0  -9      27      39
   4   0   9      11      58
   4   0   9       1      72
  -5   0  -9       5     113
   5   0  -9       0      63
   5   0   9      62      82
   5   0   9       5      72
   6   0  -9      14      70
   6   0   9      56      77
   6   0  -9      58      62
   6   0   9       6      82
  -6   0  -9       6     116
  -7   0  -9      20     132
   7   0  -9      68      77
   7   0  -9       1      84
   0   1  -9   87097    2340
   0  -1  -9   81913    2333
   0  -1   9   83424    2270
   0   1   9   75672    2284
   1  -1   9     736      99
  -1   1   9     875      86
  -1  -1  -9    1203     102
   1   1  -9     838      84
  -1  -1   9     845      83
   1  -1  -9     975      84
  -1   1  -9     908     104
  -2  -1  -9    1070     129
   2  -1   9    1129      80
   2   1  -9    1207      96
   2   1   9    1060     117
  -2  -1   9    1045      83
   2  -1  -9    1366      88
   3   1  -9     127      53
   3   1  -9     176      37
   3  -1   9     129      62
  -3  -1  -9     135      92
   3  -1   9      72      47
   3   1   9     114      48
   3  -1  -9     166      37
   3   1   9      88      62
   3  -1  -9      97      49
   3  -1  -9      76      40
   4   1  -9   59846    1434
   4  -1   9   61197    1439
   4  -1   9   61497    1558
  -4  -1  -9   61199    1561
   4   1  -9   58491    1540
   4   1   9   59185    1438
   4  -1  -9   59351    1434
   4  -1  -9   58872    1537
   4  -1  -9   59766    1538
   4   1   9   60048    1554
  -4   1  -9   51731    1548
   5   1  -9     261      63
  -5  -1  -9     214     115
   5  -1   9     203      82
   5  -1  -9     245      73
  -5   1  -9     122     120
   5  -1  -9      35      64
   5   1   9     324      80
   6  -1   9    2955     199
   6  -1   9    3222     188
   6   1  -9    2927     180
   6   1  -9    3463     165
  -6  -1  -9    3160     243
  -6   1  -9    3174     243
   6   1   9    2894     201
   6  -1  -9    3186     179
   6  -1  -9    3212     166
   6   1   9    3361     182
   7   1  -9     190      91
  -7  -1  -9     212     133
   7  -1   9     468      99
   7  -1   9     125      98
  -7   1  -9     174     141
   7  -1  -9     456      86
   7  -1  -9     331      95
   8   1  -9   16462     528
   8  -1  -9   15451     534
   0  -2  -9     521     178
   0  -2   9     579     182
   0   2   9     669     183
  -1  -2  -9    1128     103
  -1   2   9     832      93
   1   2  -9     976      84
   1  -2   9     920     100
  -1  -2   9     957      79
   1   2   9     725      96
   1  -2  -9     827      78
   2   2  -9    1836      80
   2  -2   9    2187     128
   2   2   9     659     129
   2   2   9     731      90
   3   2  -9      19      38
  -3  -2  -9       5      88
   3   2  -9       9      55
   3  -2   9      35      55
   3   2   9       8      66
  -3   2  -9      36     100
   3  -2  -9      25      43
   3   2   9       5      48
  -3  -2   9       5      38
   3  -2  -9      44      42
   3  -2  -9      39      47
  -4  -2  -9     654     115
   4  -2   9     508      91
   4   2  -9     613      82
   4   2  -9     634      82
   4  -2   9     604     110
   4   2   9     583      78
   4  -2  -9     614      87
  -4   2  -9     572     129
   4  -2  -9     584      88
   4  -2  -9     521      75
   4   2   9     550      90
   5  -2   9       1      78
   5  -2   9      58      85
  -5  -2  -9       1     110
   5   2  -9      36      55
   5   2  -9       5      65
   5   2   9      12      79
  -5   2  -9       1     119
   5   2   9     114      75
   5  -2  -9      50      64
   5  -2  -9       5      53
   5  -2  -9       5      61
   6   2  -9     131      76
   6  -2   9     202      88
   6  -2   9     143      86
   6   2  -9     292      64
  -6  -2  -9     341     124
   6   2   9     274      77
   6  -2  -9     157      74
   6  -2  -9     226      76
   6   2   9      95      83
  -6   2  -9     149     132
   7  -2   9     472     117
   7   2  -9     480     107
  -7  -2  -9     652     147
   7  -2   9     986     162
   7  -2  -9     553     103
   7  -2  -9     687     105
  -7   2  -9     492     156
   0  -3  -9   21220     373
   0   3  -9   22655     386
   0  -3   9   22901     380
   1  -3   9    1099      94
   1   3  -9     992      55
  -1  -3  -9    1190      97
   1   3   9     977      62
   1  -3  -9     976      64
   1   3   9     808      94
  -1  -3   9    1130      77
  -1   3  -9    1099      96
  -1   3  -9    1136      64
  -2  -3  -9   13832     465
   2  -3   9   13390     465
   2   3   9   13733     412
   2   3   9   13672     463
  -2   3  -9   14188     470
   2  -3  -9   14322     460
   2  -3  -9   14813     443
  -3  -3  -9    3325     188
   3   3  -9    2954     129
   3  -3   9    3012     149
  -3   3  -9    3157     197
   3  -3  -9    3235     144
   3  -3  -9    3108     157
   3   3   9    3284     172
   3   3   9    3219     138
   3  -3  -9    3092     137
   4  -3   9   17171     495
  -4  -3  -9   17478     499
   4   3  -9   16929     435
   4   3  -9   16644     480
   4  -3   9   16977     444
   4  -3  -9   16240     432
   4  -3  -9   16635     475
   4  -3  -9   16407     461
   4   3   9   17166     441
   4   3   9   16807     481
  -4   3  -9   17329     510
   5   3  -9    1230     133
  -5  -3  -9     879     139
   5  -3   9    1210     158
   5   3  -9    1125     108
   5  -3   9    1300     152
   5  -3  -9     794     119
   5  -3  -9    1152     120
   5  -3  -9    1176     117
  -5   3  -9     797     161
   6   3  -9   12732     425
   6  -3   9   12619     438
   6   3  -9   13316     390
  -6  -3  -9   13064     454
   6  -3   9   12940     405
  -6   3  -9   12944     468
   6   3   9   13390     400
   6  -3  -9   12770     392
  -7  -3  -9       6     128
   7   3  -9      48      69
   7  -3   9     156     106
   7  -3   9       5      97
   7   3  -9       4      91
   7  -3  -9      36      92
  -7   3  -9       5     140
   7   3   9      54      88
   0   4   9    3098      48
   0   4  -9    2848      54
   0   4  -9    2640      40
   0   4   9    3155      50
   0  -4   9    2926      48
   0  -4  -9    3291      34
   1   4  -9    6211     205
  -1  -4  -9    5949     200
  -1   4   9    6028     176
   1  -4   9    6344     205
  -1  -4   9    6371     187
   1   4   9    5994     171
   1   4   9    5763     207
   1  -4  -9    6190     207
  -1   4  -9    6242     211
   2  -4   9    8225     293
   2   4  -9    6823     278
  -2  -4  -9    8723     289
   2   4  -9    7434     245
  -2   4   9    8823     251
   2  -4  -9    8706     258
   2  -4  -9    8606     286
  -2   4  -9    8592     300
   2   4   9    8784     291
   2   4   9    8422     248
  -2   4  -9    8032     251
   3   4  -9    5105     165
   3  -4   9    5122     191
  -3  -4  -9    4809     217
   3  -4  -9    4913     197
   3   4   9    4876     205
   3  -4  -9    4925     175
   3  -4  -9    4585     170
   3   4   9    4828     175
  -3   4  -9    4999     234
   4  -4   9    2998     163
   4   4  -9    3379     138
   4   4  -9    2899     159
  -4  -4  -9    3442     211
   4  -4   9    3192     183
   4  -4  -9    3129     162
   4  -4  -9    3180     149
  -4   4  -9    3215     224
   4   4   9    3324     152
   4   4   9    3015     171
   4  -4  -9    3267     151
   5  -4   9    4591     230
  -5  -4  -9    4366     251
   5   4  -9    4535     209
   5  -4   9    4925     213
   5   4  -9    4749     183
   5   4   9    4839     198
   5  -4  -9    4556     207
  -5   4  -9    4569     277
   5   4   9    4711     215
   5  -4  -9    4731     194
   6  -4   9     342     109
   6  -4   9     794     114
  -6  -4  -9     580     136
   6   4  -9     655     110
   6   4  -9     715     114
   6  -4  -9     544      91
  -6   4  -9     421     153
   6  -4  -9     685     100
   6   4   9     535      98
   7   4  -9      10      96
   7  -4   9      76     107
  -7  -4  -9      25     130
   7   4  -9      41      78
   7  -4  -9      19      98
  -7   4  -9       6     155
   7   4   9      22      90
   0   5   9   28624     695
   0   5  -9   30260     760
   0  -5   9   29016     748
   0   5  -9   29688     695
   1  -5   9      11      54
  -1  -5  -9      16      61
   1   5  -9      26      45
  -1   5   9       4      62
   1   5  -9       2      56
   1   5   9       7      49
  -1  -5   9       7      42
   1   5   9       7      58
   1  -5  -9       1      38
  -1   5  -9       8      53
   1  -5  -9       1      12
  -1   5  -9       0      65
   2   5  -9  130233    3039
  -2  -5  -9  128284    3229
   2  -5   9  129666    3258
  -2   5   9  125289    3025
   2   5  -9  125213    3236
  -2   5  -9  123814    3031
   2   5   9  130965    3254
   2   5   9  133306    3030
   2  -5  -9  125646    3256
  -2   5  -9  132712    3241
   3   5  -9    3551     175
   3  -5   9    3748     193
  -3  -5  -9    3620     195
   3   5  -9    3554     146
  -3   5   9    3592     167
  -3   5  -9    3910     218
   3  -5  -9    3749     178
   3   5   9    3877     165
   3   5   9    3682     186
   4  -5   9       2      83
   4   5  -9     142      56
   4   5  -9     128      70
   4  -5   9     140      81
  -4  -5  -9     232     105
   4   5   9      86      73
   4   5   9      66      71
  -4   5  -9     193     119
   4  -5  -9      48      68
   4  -5  -9     109      68
   5   5  -9     133      72
   5   5  -9      16      57
   5  -5   9       2      86
  -5  -5  -9      57     112
   5  -5   9       2      88
   5  -5  -9      39      68
   5  -5  -9      30      74
  -5   5  -9       2     127
   5   5   9      77      77
   6   5  -9    8574     294
   6  -5   9    8930     321
   6   5  -9    8466     331
   6  -5   9    8490     350
  -6  -5  -9    8817     355
   6  -5  -9    8894     324
   6  -5  -9    8994     304
   6   5   9    9017     309
  -6   5  -9    8663     379
  -7  -5  -9     270     136
   7   5  -9     143     103
   7  -5   9     228     121
   7  -5   9      34     114
   7   5  -9     104      84
   7  -5  -9     153     109
  -7   5  -9      11     161
   7   5   9      72      96
   0   6  -9    3690     198
   0   6  -9    3542     184
   0  -6   9    3295     184
   0   6   9    3149     186
  -1   6   9    4952     199
   1  -6   9    5081     207
   1   6  -9    4896     182
   1   6  -9    5003     207
  -1  -6  -9    4859     194
   1   6   9    4785     212
  -1   6  -9    4944     213
  -1   6  -9    4750     194
   1   6   9    4973     189
   2   6  -9     473     101
  -2   6   9     540     140
   2   6  -9     377     119
  -2  -6  -9      28     135
   2   6   9      23     119
  -2   6  -9      36     131
  -2   6  -9      37     149
   2   6   9      19     138
   3   6  -9   64769    1697
   3  -6   9   66220    1712
   3   6  -9   63264    1578
  -3  -6  -9   66376    1690
  -3   6   9   63058    1577
   3  -6  -9   64727    1705
   3   6   9   64707    1580
   3   6   9   65802    1696
  -3   6  -9   63698    1581
  -3   6  -9   67548    1699
  -4  -6  -9       1      98
   4  -6   9       3      84
   4   6  -9       3      67
   4   6  -9       3      52
  -4   6  -9       3     111
   4   6   9       1      73
   4   6   9       1      70
   4  -6  -9       1      68
   5   6  -9     310      89
   5   6  -9     400      78
   5  -6   9     280     104
  -5  -6  -9     394     120
   5  -6   9     446     114
   5  -6  -9     192      89
   5   6   9     328      90
   5  -6  -9     468      92
  -5   6  -9     383     138
   6  -6   9     953     139
  -6  -6  -9    1309     217
   6  -6   9     763     137
   6   6  -9     963     132
   6   6  -9    1022     157
   6  -6  -9     707     121
   6   6   9    1129     163
  -6   6  -9     667     165
   6  -6  -9    1000     158
   7   6  -9    5695     255
  -7  -6  -9    6214     327
   7  -6   9    5171     299
   7   6   9    5772     276
   7  -6  -9    5768     303
   7  -6  -9    5956     288
  -7   6  -9    5140     383
   0   7  -9    1745     185
   0   7  -9    1929     189
   0  -7  -9    1750     198
   0   7   9    1759     187
   0  -7   9    1727     174
   1  -7   9    3185     145
   1   7  -9    3067     146
   1   7  -9    3056     138
  -1   7   9    2719     163
   1  -7  -9    3079     157
  -1   7  -9    3239     159
   1   7   9    3485     160
  -1   7  -9    3212     157
   1   7   9    3216     143
  -2   7   9    2878     180
   2   7  -9    3015     140
   2  -7   9    2814     174
   2   7  -9    2910     159
   2  -7  -9    2919     167
  -2   7  -9    2973     184
   2   7   9    2843     155
  -2   7  -9    3218     172
   2   7   9    2964     173
  -3  -7  -9    1728     160
  -3   7   9    2244     165
   3   7  -9    2048     130
   3   7  -9    1922     152
   3  -7   9    1780     174
   3   7   9    1885     160
  -3   7  -9    1488     185
   3   7   9    1879     150
   3  -7  -9    2055     157
  -3   7  -9    1899     172
   4   7  -9   19307     591
   4   7  -9   19161     542
  -4  -7  -9   19987     592
   4  -7   9   19730     610
  -4   7   9   19503     547
   4  -7  -9   20197     597
   4   7   9   20467     553
  -4   7  -9   19175     553
  -4   7  -9   19270     598
   5  -7   9    1321     148
   5   7  -9    1745     142
   5   7  -9    1747     165
  -5  -7  -9    1905     207
   5   7   9    1801     169
  -5   7  -9    1322     161
   5  -7  -9    1649     167
   6   7  -9   16975     550
   6   7  -9   17165     507
   6  -7   9   17269     538
  -6  -7  -9   17264     566
   6  -7   9   17760     581
   6   7   9   17989     522
   6  -7  -9   17235     554
   7   7  -9    1273     159
   7   7   9    1263     196
   7  -7  -9     930     135
   0   8  -9      76     987
   0   8  -9      92    1052
   0   8   9     213     987
   0  -8  -9     203    1064
   0  -8   9     153    1047
   1  -8   9       3      72
   1   8  -9      36      74
   1   8  -9     249      74
  -1   8   9      15     105
  -1   8  -9       3     100
   1  -8  -9     261      82
   1   8   9     140      80
  -1   8  -9       3      84
   1   8   9      92      83
   2   8  -9    1108     154
   2   8  -9    1090     168
   2  -8   9     699     184
  -2   8   9    1223     194
   2   8   9     676     171
  -2   8  -9     692     176
   2   8   9     708     176
   2  -8  -9    1248     180
  -2   8  -9     697     187
  -3   8   9    4228     219
   3  -8   9    4119     219
   3   8  -9    4079     195
   3   8  -9    4289     179
  -3   8  -9    3981     220
   3   8   9    4023     200
  -3   8  -9    4159     218
   3   8   9    4193     199
   3  -8  -9    3967     207
  -4   8   9     848     172
   4  -8   9     750     135
   4   8  -9     772     124
   4   8  -9     921     142
  -4   8  -9    1004     177
   4  -8  -9     825     157
   4   8   9     812     149
   5   8  -9     172     104
  -5   8   9     290     120
  -5  -8  -9     128     119
   5   8  -9     175      86
   5   8   9     177     104
   5  -8  -9     162      97
  -5   8  -9     295     126
  -6  -8  -9     178     131
  -6   8   9     261     138
   6   8  -9     137     115
   6   8  -9      58      92
   6   8   9     115     110
   6  -8  -9      25     102
   0   9  -9    9265     270
   0   9   9    7880     275
   0  -9  -9    7723     284
   0   9  -9    9184     273
   1  -9   9    4157     178
   1   9  -9    4522     172
   1   9  -9    4394     173
  -1   9   9    4120     199
   1  -9  -9    4731     188
  -1   9  -9    3619     199
   1   9   9    4877     192
  -1   9  -9    3754     176
   1   9   9    4547     177
   2  -9   9   17704     574
   2   9  -9   18095     526
   2   9  -9   17953     560
  -2   9   9   18531     542
  -2   9  -9   18157     586
   2   9   9   18253     531
  -2   9  -9   16984     539
   2   9   9   18220     565
   2  -9  -9   17916     575
  -3   9   9       3     117
   3  -9   9       5     100
   3   9  -9       1      84
   3   9  -9       1      74
   3   9   9       1      92
   3  -9  -9       3      86
  -3   9  -9      59     120
  -4   9   9    9035     325
   4   9  -9    9245     299
   4  -9   9    9164     355
   4   9  -9    9559     329
   4  -9  -9    8934     337
  -4   9  -9    9168     332
   4   9   9    8872     314
   5  -9   9    3205     261
   5   9  -9    3563     230
   5   9  -9    3468     207
  -5   9   9    3677     247
  -5   9  -9    4200     253
   5   9   9    3571     234
   5  -9  -9    3560     231
   6   9  -9    8747     334
  -6   9  -9    9152     374
   6   9   9    8966     356
   0  10   9   13716     143
   0  10  -9   13616     144
   1  10  -9    3241     198
  -1  10   9    2941     227
   1  10  -9    3451     192
   1 -10  -9    3592     215
  -1  10  -9    3408     225
   1  10   9    3386     205
   1  10   9    3673     213
  -2  10   9     221     132
   2  10  -9     119      93
   2 -10   9     153     106
   2  10  -9     209      85
   2 -10  -9     281      98
   2  10   9     277      93
   2  10   9     271     101
  -2  10  -9     267     131
   3  10  -9    4938     229
   3 -10   9    5012     265
   3  10  -9    5039     222
  -3  10   9    4931     268
   3 -10  -9    4799     241
  -3  10  -9    5009     271
   3  10   9    5226     237
   4 -10   9      14     117
   4  10  -9       3      80
   4  10  -9       3      95
  -4  10   9       9     135
   4 -10  -9      17      99
  -4  10  -9      16     137
   4  10   9       6     103
   5  10  -9    3411     234
   5 -10   9    3536     280
  -5  10   9    3645     261
   5  10  -9    3797     221
   5 -10  -9    3608     247
  -5  10  -9    3932     272
   5  10   9    3647     247
   0 -11  -9    2897     198
   0  11  -9    3265     207
   0  11   9    2392     215
  -1  11   9    2880     238
   1  11  -9    3373     202
   1  11   9    3807     214
   1  11   9    3181     207
   1 -11  -9    3542     209
  -1  11  -9    3235     236
   2  11  -9   11676     375
  -2  11   9   11471     408
   2 -11   9   12089     408
   2 -11  -9   10924     405
   2  11   9   11572     377
  -2  11  -9   12050     412
  -3  11   9     295     153
   3 -11   9     325     132
   3  11  -9     317     111
   3  11  -9     404     108
   3  11   9     334     122
  -3  11  -9     388     156
   3 -11  -9     479     115
   4  11  -9    2897     202
  -4  11   9    3038     267
   4 -11   9    2909     255
   4  11  -9    3587     221
  -4  11  -9    2973     265
   4  11   9    2841     222
   4 -11  -9    3274     227
   5  11  -9    3283     229
   5  11  -9    2587     213
  -5  11  -9    2602     279
   5  11   9    2661     238
   0 -12  -9     132     110
   0  12   9      13     131
   1  12  -9       0     116
   1 -12  -9      23     108
   1  12   9     160     115
  -1  12  -9       0     149
   1  12   9       5     119
  -2  12   9     716     169
   2  12  -9     857     131
   2 -12  -9     867     123
   2  12   9     860     134
  -2  12  -9     520     170
   3 -12   9    4075     272
   3  12  -9    4042     239
  -3  12   9    3646     292
  -3  12  -9    3785     297
   3  12   9    4057     251
   3 -12  -9    4066     253
   4 -12   9     576     155
   4  12  -9     599     125
  -4  12   9     459     183
  -4  12  -9     744     186
   4  12   9     669     138
   0 -13  -9   14989     566
   0  13  -9   18880     554
   0  13   9   14776     549
   1  13  -9     736     149
  -1  13   9     589     187
   1  13   9     789     154
   1 -13  -9    1143     194
  -1  13  -9     629     184
  -2  13   9    7310     347
   2  13  -9    8206     314
   2 -13  -9    8305     325
  -2  13  -9    7995     360
   2  13   9    7650     314
  -3  13   9    2205     228
   3  13  -9    2540     216
  -3  13  -9    2042     295
   3  13   9    2415     224
   0  14  -9    4885     278
   0  14   9    4111     273
   1  14  -9       6     137
   1 -14  -9     175     122
   1  14   9      13     144
   0   0  10  302791    5813
   0   0 -10  312076    5874
  -1   0  10    4335     175
   1   0  10    3862     186
  -1   0 -10    4224     188
   1   0 -10    4305     174
   2   0  10    5505     266
   2   0 -10    6373     261
   2   0  10    6002     222
  -2   0  10    6198     254
  -2   0 -10    6286     283
   3   0 -10    1175      66
   3   0  10    1344      91
  -3   0 -10    1115     121
   3   0  10    1378     123
   3   0 -10     929      93
   4   0  10   58056    1484
   4   0 -10   58474    1359
  -4   0 -10   59396    1490
   4   0 -10   58373    1465
   4   0  10   57539    1365
   4   0 -10   58651    1456
   5   0 -10    2797     142
  -5   0 -10    2718     234
   5   0  10    2781     167
   5   0 -10    3174     163
   6   0  10    4300     232
   6   0 -10    4376     211
   6   0  10    4804     207
  -6   0 -10    4524     263
   7   0  10     132      98
  -7   0 -10     253     140
   7   0 -10     235      89
   0   1  10   24755    1453
   0  -1  10   25486    1450
   0  -1 -10   26098    1444
   0   1 -10   26996    1448
   1   1 -10    9627     303
  -1   1  10    9628     304
   1  -1  10    9472     311
  -1  -1 -10   10267     309
  -1   1 -10    9755     312
   1  -1 -10   10062     301
  -1  -1  10    9567     299
   2   1  10     479     163
   3  -1  10    1929     104
   3   1 -10    2075      83
   3   1 -10    1941     111
  -3  -1 -10    1889     172
   3  -1 -10    1905      86
  -3  -1  10    2031     101
   3  -1 -10    1954     103
   3  -1 -10    2023     111
   3   1  10    1904     100
   3   1  10    1923     138
   4  -1  10     755      94
   4   1 -10     638      79
  -4  -1 -10     700     123
   4   1 -10     566      80
   4  -1  10     914     105
   4   1  10     692      75
   4   1  10     614      94
   4  -1 -10     750      87
  -4   1 -10     854     128
   4  -1 -10     528      74
   4  -1 -10     835      82
   5  -1  10    7347     286
   5  -1  10    6454     245
   5   1 -10    6630     225
   5   1 -10    6477     252
  -5  -1 -10    6571     306
   5   1  10    6686     244
   5  -1 -10    6001     224
  -5   1 -10    6579     313
   5  -1 -10    6731     252
  -6  -1 -10    4693     281
   6  -1  10    4718     243
   6  -1  10    5103     214
   6   1 -10    4345     218
  -6   1 -10    4723     275
   6   1  10    4431     239
   6  -1 -10    4931     215
   6   1  10    5144     213
   7   1 -10     330     103
   7  -1  10     306     111
  -7  -1 -10     397     147
   7  -1 -10     480     102
  -7   1 -10     392     151
   0  -2 -10   17017     268
   0  -2  10   17087     269
   0   2 -10   16927     270
   0   2  10   15883     271
  -1   2  10    3998     174
   1  -2  10    4078     181
  -1  -2 -10    4290     181
   1   2 -10    4254     173
  -1  -2  10    4177     164
   1  -2 -10    4388     167
   1   2  10    3755     176
   2  -2  10    7297     215
   2   2 -10    7535     252
   2  -2  10    7731     263
  -2  -2 -10    7653     270
   2   2  10    7281     211
   2   2  10    7690     262
   2  -2 -10    7314     237
  -2  -2  10    7244     234
   2  -2 -10    7480     248
   3   2 -10     522      71
   3   2 -10     587      60
  -3  -2 -10     584     110
   3  -2  10     436      62
   3   2  10     424      80
   3   2  10     459      58
  -3   2 -10     446      95
   3  -2 -10     500      55
   3  -2 -10     464      63
   3  -2 -10     375      58
   4  -2  10   23013     628
  -4  -2 -10   24891     708
   4   2 -10   24385     624
   4   2 -10   23458     683
   4  -2  10   23694     698
   4  -2 -10   24085     619
   4  -2 -10   24517     672
  -4   2 -10   24993     715
   4  -2 -10   25001     678
   4   2  10   23507     689
   4   2  10   23722     629
   5  -2  10    2377     164
   5   2 -10    2113     132
  -5  -2 -10    1843     226
   5   2 -10    2451     168
   5  -2 -10    2535     157
   5   2  10    2633     158
  -5   2 -10    2118     240
   5  -2 -10    2026     136
   6   2 -10   11102     386
   6  -2  10   11366     397
  -6  -2 -10   11629     423
   6   2 -10   12145     373
   6  -2  10   11590     362
   6   2  10   11738     357
   6  -2 -10   11817     372
  -6   2 -10   11813     439
   6   2  10   11611     397
   7   2 -10     348     102
  -7  -2 -10     525     145
   7  -2  10     325     106
   7  -2  10     733     111
  -7   2 -10     322     150
   0   3 -10      28      71
   0  -3  10      22      61
   0  -3 -10      90      84
  -1  -3 -10    1140     116
   1  -3  10    1040     112
  -1   3 -10    1104     117
   1  -3 -10    1010      88
  -1   3 -10    1009      73
  -1  -3  10    1263      95
   1   3  10     964     115
   2  -3  10    1597     145
  -2   3  10    1887     108
  -2  -3 -10    1464     156
   2   3  10    1264      99
   2  -3 -10    1871     111
   2   3  10    1377     142
  -2  -3  10    2232     111
   2  -3 -10    1729     128
  -2   3 -10    1550     152
   3   3 -10      40      44
   3   3 -10      62      38
  -3  -3 -10      68      93
   3  -3  10       3      24
   3  -3  10      41      60
   3  -3 -10     100      49
   3   3  10     165      52
   3  -3 -10      63      47
  -3   3 -10     112      93
   3   3  10      95      71
   3  -3 -10      45      50
  -4  -3 -10     625     124
   4  -3  10     443      95
   4  -3  10     563     118
   4   3 -10     544      81
   4   3 -10     564      90
   4   3  10     542      78
  -4   3 -10     628     141
   4  -3 -10     470      77
   4   3  10     466      95
   4  -3 -10     619      96
   4  -3 -10     529      77
  -5  -3 -10     643     137
   5   3 -10     615     126
   5  -3  10     840     142
   5  -3  10     982     164
   5   3 -10     724     101
   5   3  10    1053     124
  -5   3 -10     688     154
   5  -3 -10     821     112
   5  -3 -10     897     112
   5  -3 -10     731     117
  -6  -3 -10      50     124
   6   3 -10      36      81
   6  -3  10       1      88
   6  -3  10     117      91
   6   3  10      15      91
  -6   3 -10       1     138
   6   3  10     149      83
   7  -3  10       9     103
   7   3 -10      21      92
  -7  -3 -10      64     134
  -7   3 -10       1     157
   0  -4  10    9888     146
   0   4 -10   10248     160
   0   4  10    8510     143
   0  -4 -10    9366     138
  -1   4  10     770      94
   1  -4  10     606     107
  -1  -4 -10     727     112
   1   4 -10     624      99
   1  -4 -10     719      80
  -1  -4  10     625      91
   1   4  10     546     115
  -1   4 -10     617     111
   1   4  10     588      76
  -2   4  10   68963    1588
   2  -4  10   70352    1729
   2   4 -10   68103    1589
  -2  -4 -10   70469    1715
   2  -4 -10   70132    1727
   2  -4 -10   70335    1694
  -2   4 -10   70989    1723
  -2   4 -10   67748    1591
   2   4  10   70030    1591
   2   4  10   69374    1726
   3   4 -10    1825      92
  -3  -4 -10    1643     167
   3  -4  10    1687     145
   3  -4  10    1646     130
   3   4  10    1687     110
   3  -4 -10    1711     102
   3  -4 -10    1575     126
  -3   4 -10    1860     174
   3   4  10    1614     144
  -4  -4 -10    2264     198
   4   4 -10    2127     115
   4  -4  10    2129     147
   4   4 -10    1976     141
   4  -4  10    2217     169
  -4   4 -10    2214     215
   4  -4 -10    2187     129
   4   4  10    2019     159
   4   4  10    2121     132
   4  -4 -10    2287     143
   5  -4  10     636      97
  -5  -4 -10     435     128
   5   4 -10     624      94
   5  -4  10     474     103
   5   4 -10     497      91
  -5   4 -10     645     151
   5  -4 -10     343      78
   5   4  10     431      82
   5  -4 -10     527      86
   5   4  10     445      94
   6  -4  10   13904     488
   6   4 -10   14069     472
  -6  -4 -10   14297     500
   6  -4  10   14662     447
   6  -4 -10   14691     466
  -6   4 -10   14660     518
   6   4  10   14318     438
  -7  -4 -10      66     138
   7   4 -10      53      97
   7  -4  10     347     119
   7  -4  10       0     108
  -7   4 -10       0     158
   7   4  10     154      93
   0  -5  10    2790     500
   0  -5 -10    2367     484
   0   5  10    3155     459
   0   5  10    2689     513
   0   5 -10    3071     514
   0   5 -10    2835     458
   1   5 -10    6518     193
   1  -5  10    6443     228
  -1   5  10    6662     207
   1   5 -10    6383     230
  -1  -5 -10    6546     223
   1   5  10    6407     235
  -1   5 -10    6275     202
  -1  -5  10    6564     210
  -1   5 -10    6322     233
   1   5  10    6516     196
  -2   5  10    6642     179
  -2  -5 -10    5091     201
   2   5 -10    5918     158
   2   5 -10    5830     188
   2  -5  10    4402     202
  -2   5 -10    4654     173
   2   5  10    5141     203
   2  -5 -10    6604     196
  -2   5 -10    4723     210
   2   5  10    5244     166
   3   5 -10   41553    1116
  -3  -5 -10   41684    1116
   3  -5  10   41969    1129
  -3   5  10   40757    1026
   3   5 -10   40892    1026
   3  -5 -10   41530    1121
  -3   5 -10   42155    1124
   3   5  10   40844    1117
  -3   5 -10   40682    1032
   3   5  10   41559    1031
   4   5 -10    1891     115
  -4  -5 -10    2315     195
   4  -5  10    1534     159
   4  -5  10    1969     167
   4   5 -10    1981     141
   4   5  10    2155     157
   4  -5 -10    2062     145
   4   5  10    1903     138
  -4   5 -10    1993     209
   5   5 -10     902     108
   5  -5  10     898     115
  -5  -5 -10     989     145
   5   5 -10     829     132
   5  -5  10     743     122
   5  -5 -10     931     136
  -5   5 -10     879     154
   5   5  10     883     132
   5   5  10     865     146
   6  -5  10     646     130
  -6  -5 -10     669     148
   6   5 -10     767     154
   6  -5  10     813     124
   6  -5 -10     608     105
  -6   5 -10     621     169
   6   5  10    1028     150
   7  -5  10    5068     271
  -7  -5 -10    5208     315
   7  -5  10    4847     292
   7   5  10    4994     248
  -7   5 -10    4446     334
   0  -6  10      62     318
   0   6 -10      39     299
   0   6  10      99     300
   0   6 -10      45     332
   1   6 -10      45      57
   1   6 -10      40      72
  -1  -6 -10      48      70
   1  -6  10      41      65
  -1   6  10      53      81
   1   6  10      70      65
  -1   6 -10      70      75
   1   6  10      53      74
  -1   6 -10      49      80
   2  -6  10    5434     249
   2   6 -10    5947     241
   2   6 -10    5809     206
  -2   6  10    5851     227
  -2  -6 -10    5584     240
   2  -6 -10    5902     246
   2   6  10    5687     248
   2   6  10    6089     219
  -2   6 -10    5680     226
  -2   6 -10    5609     254
   3   6 -10    4711     199
   3  -6  10    4766     222
  -3   6  10    4616     193
  -3  -6 -10    4358     218
   3   6 -10    4839     168
   3   6  10    4555     182
   3  -6 -10    4380     207
  -3   6 -10    4670     194
   3   6  10    4365     210
  -3   6 -10    4768     234
  -4   6  10   17312     478
   4  -6  10   17582     526
   4   6 -10   17409     508
   4   6 -10   17088     458
  -4  -6 -10   17613     518
  -4   6 -10   17743     530
   4   6  10   17524     468
   4  -6 -10   17306     507
   4   6  10   17375     502
  -5  -6 -10     229     122
   5   6 -10     299      91
   5  -6  10     103     105
   5   6 -10     242      72
   5  -6  10       1     104
   5   6  10     220      85
  -5   6 -10     217     137
   5  -6 -10     129      81
   6   6 -10   25160     758
   6  -6  10   25745     722
   6  -6  10   25253     783
  -6  -6 -10   25137     772
   6   6  10   25786     707
   6  -6 -10   25543     759
  -6   6 -10   25348     782
   7  -6  10       6     131
  -7   6 -10       6     167
   7   6  10     108     110
   0   7 -10     969     162
   0  -7  10    1189     146
   0   7  10     641     162
   0   7 -10    1027     155
   1   7 -10    2911     140
   1   7 -10    2861     126
   1  -7  10    2713     144
  -1   7  10    2612     154
   1   7  10    2982     159
   1   7  10    2873     139
   1  -7 -10    2822     152
  -1   7 -10    2563     156
  -1   7 -10    2550     155
   2   7 -10    1441     138
   2  -7  10    1270     156
  -2   7  10    1676     162
  -2   7 -10    1220     162
   2   7  10    1382     138
   2   7  10    1540     158
  -3  -7 -10    3503     205
   3   7 -10    2819     184
   3   7 -10    2927     160
   3  -7  10    3209     209
  -3   7  10    3221     190
   3   7  10    3317     178
  -3   7 -10    3199     216
   3  -7 -10    3227     200
  -3   7 -10    3339     197
   3   7  10    3371     196
   4   7 -10     438      79
   4   7 -10     432     101
   4  -7  10     321     110
  -4  -7 -10     462     116
   4   7  10     515      93
   4  -7 -10     413      93
  -4   7 -10     192     122
  -4   7 -10     525     107
   5   7 -10    3401     206
   5  -7  10    3487     236
  -5  -7 -10    3697     242
   5   7 -10    3485     178
   5  -7 -10    3461     210
   5   7  10    3493     200
  -5   7 -10    3105     255
   6   7 -10     650     127
   6  -7  10     404     135
  -6  -7 -10     663     151
   6   7  10     536     116
   6  -7 -10     544     118
   0   8  10   11407     218
   0   8 -10   11090     224
   0   8 -10   10803     214
   1   8 -10    3328     197
   1   8 -10    3312     210
  -1   8  10    3251     218
   1  -8  10    3253     213
   1   8  10    3264     201
   1   8  10    3496     229
   1  -8 -10    3514     226
  -1   8 -10    3159     224
  -1   8 -10    3179     222
   2   8 -10   21543     544
  -2   8  10   21826     558
   2  -8  10   22648     603
   2   8 -10   21954     592
   2   8  10   21576     595
  -2   8 -10   22148     556
  -2   8 -10   22483     595
   2   8  10   21966     550
   2  -8 -10   20957     600
  -3   8  10      28     118
   3   8 -10      13      64
   3  -8  10      13      92
   3   8 -10       1      80
   3   8  10       7      88
   3  -8 -10      16      85
   3   8  10      13      84
  -3   8 -10      49     109
  -3   8 -10      13     106
   4  -8  10    7583     332
   4   8 -10    8179     309
   4   8 -10    7788     275
  -4   8 -10    7246     323
   4  -8 -10    7647     313
   4   8  10    7998     293
  -4   8 -10    8024     308
   5   8 -10    1088     148
   5   8 -10     966     162
   5  -8 -10    1185     170
  -5   8 -10    1174     198
   5   8  10    1033     174
  -6  -8 -10    7585     391
   6   8 -10    7299     338
   6  -8 -10    7177     333
  -6   8 -10    7811     345
   6   8  10    7186     311
   0   9 -10      91     678
   0   9 -10      57     718
   0   9  10     381     682
   1  -9  10    1344     151
   1   9 -10    1526     145
  -1   9  10    1186     136
   1   9 -10    1601     136
  -1   9 -10    1164     153
   1   9  10    1463     154
   1  -9 -10    1503     165
  -1   9 -10    1234     136
   1   9  10    1769     173
  -2   9  10     167     118
   2   9 -10     329      82
   2  -9  10      99      95
   2   9 -10     298      77
   2  -9 -10     351      90
   2   9  10     129      88
  -2   9 -10     494     114
   2   9  10     341      91
  -2   9 -10      99      97
   3  -9  10    3979     239
   3   9 -10    4254     217
   3   9 -10    3981     196
   3   9  10    3981     215
  -3   9 -10    4066     241
   3  -9 -10    3981     225
   4  -9  10     619     136
   4   9 -10     904     106
   4   9 -10    1072     158
   4  -9 -10     851     122
  -4   9 -10    1222     203
   4   9  10     806     118
   5  -9  10    1271     227
   5   9 -10    1917     194
  -5   9 -10    1753     224
   5   9  10    1957     202
   5  -9 -10    1915     195
   6   9  10      79     124
  -6   9 -10     247     158
   0  10  10    6951     425
   0  10 -10    5108     433
   0  10 -10    5016     422
   1  10 -10    3065     181
   1  10 -10    3035     190
  -1  10  10    2657     219
  -1  10 -10    3019     213
   1  10  10    2966     193
   1 -10 -10    3296     209
   1  10  10    3571     215
   2  10 -10   16515     458
   2 -10  10   16456     476
   2  10 -10   16698     431
  -2  10 -10   16591     458
   2  10  10   16377     464
   2 -10 -10   16903     474
   2  10  10   16311     438
   3  10 -10      12      85
   3 -10  10      35     111
   3  10 -10      12      82
  -3  10 -10      40     140
   3 -10 -10      10      95
   3  10  10       1     101
   4  10 -10    2393     196
   4 -10  10    2200     240
   4  10 -10    2350     178
  -4  10 -10    2393     242
   4 -10 -10    2521     206
   4  10  10    2206     197
   5 -10  10    3893     301
   5  10 -10    4573     260
   5  10  10    4485     276
  -5  10 -10    4427     292
   5 -10 -10    4350     268
   0  11  10   14950     699
   0  11 -10   15610     687
   1  11 -10      40     107
   1  11  10     578     110
   1  11  10      59     109
   1 -11 -10     192     105
   2  11 -10     199     113
   2 -11  10     208     125
   2 -11 -10     246     121
  -2  11 -10     112     158
   2  11  10     262     122
   3  11 -10    4559     226
   3  11 -10    4346     223
   3 -11  10    4348     270
   3  11  10    4314     242
  -3  11 -10    4418     279
   3 -11 -10    4056     246
   4 -11  10      18     136
   4  11 -10     174     109
   4 -11 -10      83     109
   4  11  10       4     124
  -4  11 -10      18     154
  -5  11 -10       1     167
   0  12 -10   27514     972
   1  12 -10    7259     322
  -1  12 -10    6567     364
   1  12  10    7962     351
   1 -12 -10    7165     344
   2  12 -10   11251     379
   2 -12 -10   10716     405
  -2  12 -10   10075     418
   3 -12  10    1370     223
   3  12 -10    1553     197
   3 -12 -10    1548     206
  -3  12 -10    1196     199
  -4  12 -10    3001     293
   0  13 -10    6306     375
   1  13 -10     866     151
  -1  13 -10     685     184
   2  13 -10      30     127
   2 -13 -10     101     119
  -2  13 -10      14     174
   0  14 -10    8842     442
   1 -14 -10      20     130
  -1   0 -11      17      62
   1   0  11       7      58
   1   0 -11       0      46
  -1   0  11       0      46
   3   0 -11       0      50
  -3   0  11       0      45
   3   0  11       6      66
  -3   0 -11      42     103
  -4   0 -11       9     110
   4   0 -11       1      59
   4   0  11       0      85
  -5   0 -11       1     120
   5   0 -11       7      66
   6   0  11       1      89
   6   0 -11       5      68
  -6   0 -11       1     119
  -7   0 -11      23     136
   7   0 -11       1      85
   7   0  11       3      91
   0   1  11  172304    6118
   0   1 -11  172679    6188
   0  -1  11  169725    6117
   0  -1 -11  171830    6164
   1   1 -11    1431     100
  -1  -1 -11    1337     119
  -1   1  11    1202     102
   1  -1  11    1399     118
  -1  -1  11    1356      97
   1   1  11    1096     109
   1  -1 -11    1255      98
  -1   1 -11    1385     117
  -2   1  11    9258     235
  -2  -1 -11    9854     263
   2   1 -11    9872     244
  -2  -1  11    9175     229
   2  -1 -11    9596     235
  -3  -1 -11     932     167
   3   1 -11     883     102
  -3  -1  11     844      93
   3   1  11     991     132
   3  -1 -11     887      99
   4  -1  11   29421     794
  -4  -1 -11   31481     885
   4  -1  11   29759     871
   4   1 -11   29762     854
   4  -1 -11   31289     848
  -4   1 -11   31167     887
   4   1  11   29976     871
   4  -1 -11   30376     849
  -5  -1 -11     662     142
   5   1 -11     809     132
   5  -1  11     539      98
   5  -1 -11     675     118
  -5   1 -11     644     146
   6   1 -11     435      96
  -6  -1 -11     427     135
   6  -1  11     383     106
   6   1  11     388     105
  -6   1 -11     347     142
   6  -1 -11     551      88
   7  -1  11     126     100
  -7  -1 -11     327     141
   7   1 -11     189      95
   7   1  11       7     104
   7  -1 -11     301      96
  -7   1 -11     259     147
   0   2  11   24760     326
   0  -2 -11   25309     316
   0   2 -11   26155     322
   0  -2  11   26567     322
   1  -2  11    5861     212
  -1  -2 -11    6613     216
  -1   2  11    6080     206
   1   2 -11    6107     202
  -1  -2  11    6064     197
   1  -2 -11    6247     196
   2  -2  11     504      80
  -2  -2 -11     460      96
   2   2 -11     699      97
   2  -2 -11     483      66
  -2  -2  11     528      81
   2   2  11     421      79
   3   2 -11    2626     148
  -3  -2 -11    2778     200
   3  -2 -11    2949     137
   3   2  11    2977     173
  -3   2 -11    2616     185
   3  -2 -11    2919     145
  -4  -2 -11     910     140
   4  -2  11    1132     119
   4  -2  11     927     148
   4   2 -11     681     112
   4  -2 -11     721     105
   4   2  11     651     103
  -4   2 -11    1042     152
   4  -2 -11     804     105
   5  -2  11    2508     171
  -5  -2 -11    2004     228
   5   2 -11    2006     159
  -5   2 -11    1941     240
   5  -2 -11    2188     149
   5  -2 -11    1936     149
  -6  -2 -11    5756     299
   6   2 -11    5568     250
   6  -2  11    5207     270
  -6   2 -11    5283     312
   6   2  11    5222     268
   6  -2 -11    5742     238
  -7  -2 -11    2037     238
   7   2 -11    1853     184
   7  -2  11    1582     197
  -7   2 -11    1495     259
   0   3  11    6126     269
  -1  -3 -11    5236     185
  -1   3  11    5206     185
   1  -3  11    5385     187
  -1  -3  11    5321     171
   1  -3 -11    5352     166
   1   3  11    4346     179
  -2  -3 -11   52818    1459
   2  -3  11   53277    1469
   2  -3 -11   53681    1464
   2   3  11   50671    1466
  -2  -3  11   54832    1443
   2  -3 -11   54127    1440
  -2   3 -11   53690    1466
   3  -3  11      82      69
   3   3 -11      26      59
  -3  -3 -11      33      98
  -3   3 -11      76      95
   3  -3 -11      10      49
   3   3  11      18      75
   3  -3 -11      38      52
   4  -3  11    4726     224
   4  -3  11    4827     190
   4   3 -11    4708     201
  -4  -3 -11    4871     256
   4   3  11    4407     222
   4  -3 -11    4819     200
  -4   3 -11    4822     255
   4  -3 -11    4817     187
   5  -3  11    2007     186
   5   3 -11    1987     157
  -5  -3 -11    1808     217
   5  -3  11    1922     162
   5  -3 -11    1911     146
  -5   3 -11    1533     228
   5   3  11    2148     183
  -6  -3 -11   13332     482
   6   3 -11   13119     446
   6  -3  11   12966     463
  -6   3 -11   13099     494
   6   3  11   12831     449
   7   3 -11    1357     172
   7  -3  11    1139     193
  -7  -3 -11    1260     179
  -7   3 -11     964     192
   0  -4  11      83     264
   0  -4 -11     117     252
   0   4 -11     122     277
   1  -4  11    2517     146
  -1  -4 -11    2784     144
  -1   4 -11    2478     147
   1  -4 -11    2666     117
   1   4  11    2653     149
  -1  -4  11    2523     127
   2  -4  11     141      85
  -2  -4 -11      24      91
   2  -4 -11       5      72
   3  -4  11   73048    1887
  -3  -4 -11   73772    1874
   3   4 -11   71836    1868
   3  -4 -11   74816    1856
   3   4  11   73209    1880
  -3   4 -11   73624    1880
   3  -4 -11   71647    1877
  -4  -4 -11      16     109
   4  -4  11      24      81
   4   4 -11      33      65
   4  -4  11       5      76
   4  -4 -11       2      59
   4   4  11      16      78
  -4   4 -11      32     112
   5  -4  11      54      88
   5   4 -11       6      75
   5  -4  11       1      88
  -5  -4 -11      17     120
   5  -4 -11      15      67
  -5   4 -11       1     131
   5   4  11      31      84
   6  -4  11      57     103
  -6  -4 -11      36     131
   6   4 -11      59      88
  -6   4 -11       8     147
   7  -4  11    4361     269
  -7   4 -11    4200     329
   0  -5 -11    3014     162
   0   5  11    3516     175
   0  -5  11    3296     179
   0   5 -11    3219     192
   1   5 -11     155      69
  -1  -5 -11     233      76
   1  -5  11     144      71
   1   5  11     120      72
  -1   5 -11     143      80
  -1  -5  11     213      61
   2  -5  11     133      80
  -2  -5 -11     146      85
   2   5 -11     148      74
  -2   5 -11     239      80
   2  -5 -11     144      71
  -2   5 -11     163      95
   2   5  11     238      83
   3   5 -11    5379     217
  -3  -5 -11    5479     243
   3  -5  11    5618     237
  -3   5 -11    5925     201
   3  -5 -11    5394     222
   3   5  11    5461     231
  -3   5 -11    5711     249
  -4  -5 -11   29563     841
   4  -5  11   28754     842
   4   5 -11   28536     828
  -4   5 -11   30054     850
   4  -5 -11   28705     831
   4   5  11   27919     825
  -5  -5 -11     403     132
   5   5 -11     506      93
   5  -5  11     376     106
   5   5  11     439      95
  -5   5 -11     336     140
   5  -5 -11     282      84
   6  -5  11   36465    1042
  -6  -5 -11   36209    1038
   6   5 -11   35027    1015
  -6   5 -11   37548    1049
   6  -5 -11   37475    1015
  -7   5 -11       3     169
   0   6  11    2644     135
   0   6 -11    2674     122
   0  -6  11    2945     111
   1  -6  11    5525     248
   1   6 -11    5790     255
  -1   6 -11    5578     260
   1  -6 -11    5764     252
   1   6  11    5529     259
   2  -6  11    4256     217
   2   6 -11    4002     203
  -2  -6 -11    3882     211
   2   6  11    4180     222
  -2   6 -11    4439     227
  -2   6 -11    4250     198
   2  -6 -11    3408     214
   3  -6  11    6794     277
   3   6 -11    6595     258
  -3  -6 -11    6584     275
   3  -6 -11    6887     267
  -3   6 -11    6893     286
  -3   6 -11    6676     239
   3   6  11    6595     267
  -4  -6 -11    1393     191
   4  -6  11    1516     177
   4   6 -11    1502     154
   4   6  11    1620     163
  -4   6 -11    1730     162
   4  -6 -11    1837     157
  -4   6 -11    1485     206
   5  -6  11    5739     290
   5   6 -11    5931     264
  -5  -6 -11    6209     306
  -5   6 -11    5598     315
   5  -6 -11    5970     267
   6   6 -11    1303     174
   6  -6  11     623     150
  -6  -6 -11     998     169
   6  -6 -11     952     162
  -6   6 -11     649     176
   0  -7  11    5009     991
   0   7  11    5289    1015
   0   7 -11    5566    1005
   1  -7  11     248      77
   1   7 -11     143      75
   1  -7 -11     273      80
   1   7  11     223      84
  -1   7 -11      50      91
   2  -7  11   26864     733
   2   7 -11   26396     729
  -2   7 -11   27467     731
   2   7  11   26267     730
   2  -7 -11   26061     731
  -2   7 -11   26054     677
   3  -7  11    2623     198
   3   7 -11    2494     173
  -3   7 -11    2433     209
  -3   7 -11    2670     190
   3  -7 -11    2542     184
   3   7  11    2615     186
  -4  -7 -11    7233     311
   4  -7  11    6951     318
   4   7 -11    7125     295
  -4   7 -11    7266     287
   4   7  11    6971     290
  -4   7 -11    6748     319
   4  -7 -11    6846     298
  -5  -7 -11     113     123
   5  -7  11     150     112
   5   7 -11     164      95
   5  -7 -11     124      83
  -5   7 -11      14     132
  -6  -7 -11   11953     455
   6   7 -11   11634     423
   6  -7  11   12166     451
  -6   7 -11   11491     474
   6  -7 -11   11803     418
   0   8 -11    2112     357
   1   8 -11      17      82
   1  -8 -11      26      87
  -1   8 -11       3      91
   1   8  11      83      91
   2  -8  11     922     173
   2   8 -11    1148     160
   2   8  11    1159     173
  -2   8 -11    1144     173
  -2   8 -11    1165     180
   2  -8 -11    1387     171
   3   8 -11    4113     212
   3  -8  11    4227     231
  -3   8 -11    3856     235
   3  -8 -11    3978     223
  -3   8 -11    4387     230
   3   8  11    4291     220
   4  -8  11     707     133
   4   8 -11     860     118
  -4   8 -11     440     137
   4  -8 -11     822     112
  -4   8 -11     923     140
   5  -8  11      27     120
   5   8 -11      66     101
   5  -8 -11      79      90
   6  -8 -11     960     133
   0   9 -11    7545     254
   1   9 -11    4343     211
   1  -9  11    4239     213
  -1   9 -11    4011     215
   1   9  11    4321     231
   1  -9 -11    4222     228
   2   9 -11   21972     736
   2  -9  11   23680     750
   2  -9 -11   22012     744
  -2   9 -11   22894     736
   2   9  11   22416     741
   3   9 -11      37      87
   3  -9  11      75     104
   3   9  11      57      98
  -3   9 -11       9     134
   3  -9 -11      25      88
   4   9 -11    1647     173
   4  -9  11    1530     207
   4  -9 -11    1770     186
   5   9 -11    2654     210
   5  -9  11    2398     246
   5  -9 -11    2654     212
   0  10 -11    1472     107
   1  10 -11      68      97
   1  10  11      98     112
   1 -10 -11      64     110
   2  10 -11     682     108
   2 -10  11     377     119
   2 -10 -11     656     116
   2  10  11     562     117
   3  10 -11    5798     265
   3 -10  11    5775     296
   3 -10 -11    5620     279
   4 -10  11     345     142
   4  10 -11     606     124
   4 -10 -11     516     123
   5  10 -11      52     123
   1 -11 -11     103     121
   1  11  11     154     122
   2  11 -11   18596     622
   2 -11 -11   18551     632
   3 -11  11     417     145
   3  11 -11     730     157
   3 -11 -11     669     126
   4 -11  11    1604     243
   4  11 -11    2198     211
   1 -12 -11    1838     224
   1  12  11    2209     227
   2 -12 -11       0     115
   3 -12  11      10     133
   1 -13 -11    3806     259
   0   0 -12  137384    2720
   0   0  12  134896    2692
   1   0  12     156      73
   1   0 -12     151      62
  -1   0  12     105      62
  -1   0 -12     170      73
  -2   0  12   12539     485
   2   0 -12   13136     491
  -2   0 -12   13198     510
   3   0 -12    1450     110
  -3   0  12    1355     107
  -3   0 -12    1481     169
   3   0  12    1317     139
   4   0 -12   16715     500
  -4   0 -12   18099     545
   4   0  12   16686     523
  -5   0 -12      49     123
   5   0 -12      46      72
   6   0  12      17      98
   6   0 -12     143      79
  -6   0 -12     126     134
   7   0 -12     524     108
   7   0  12     348     116
   0  -1  12     328     202
   0  -1 -12     584     200
   0   1  12     493     205
   0   1 -12     447     201
   1   1 -12     176      65
  -1   1  12     113      64
   1  -1  12     236      76
  -1  -1 -12     105      77
   1  -1 -12     157      64
  -1   1 -12     194      76
  -1  -1  12      88      59
  -2  -1 -12    1094     147
  -2   1  12    1240     116
   2   1 -12    1582     114
  -2  -1  12    1543     108
   2  -1 -12    1307     115
   3  -1  12     609      96
  -3  -1 -12     721     123
   3   1 -12     610      84
  -3   1  12     591      76
  -3  -1  12     510      69
   3   1  12     588      96
  -3   1 -12     640     115
   3  -1 -12     657      79
   4  -1  12      17      84
  -4  -1 -12       1     110
   4   1 -12       4      57
  -4   1 -12      96     116
   4   1  12       1      80
   4  -1 -12       9      60
  -5  -1 -12     200     132
   5   1 -12     204      80
   5  -1 -12     158      75
  -5   1 -12     161     128
   6  -1  12       5      97
  -6  -1 -12      68     128
   6   1 -12     128      81
   6  -1 -12     113      76
   6   1  12      47     100
  -6   1 -12       5     131
   7   1 -12     816     123
   7  -1  12     640     124
   7   1  12     679     129
   7  -1 -12    1075     153
   0   2  12  101176    2837
   0  -2  12  106086    2834
   0   2 -12   93819    2905
   0  -2 -12  105387    2825
  -1  -2 -12     501      85
  -1   2  12     541      73
   1   2 -12     408      70
   1  -2  12     482      78
   1  -2 -12     593      90
  -1  -2  12     436      70
  -2   2  12   47216    1350
   2  -2  12   50024    1360
  -2  -2 -12   51653    1354
   2   2 -12   50978    1350
   2   2  12   51286    1362
  -2  -2  12   50050    1338
   2  -2 -12   49660    1339
   3   2 -12    7434     267
   3  -2  12    7475     284
  -3  -2 -12    7776     304
   3  -2 -12    7593     256
  -3   2 -12    7556     302
   3   2  12    7420     284
  -4  -2 -12    8897     342
   4   2 -12    7869     295
   4  -2  12    8576     319
   4   2  12    8005     314
  -4   2 -12    8787     340
   4  -2 -12    7873     286
   4  -2 -12    8223     293
   5   2 -12    1645     144
  -5  -2 -12    1132     165
   5  -2  12    1694     181
   5   2  12    1736     201
  -5   2 -12    1495     180
   5  -2 -12    1538     128
  -6  -2 -12      10     131
   6  -2  12      47      99
   6   2 -12      19      85
  -6   2 -12       9     138
   6   2  12      24     102
   6  -2 -12      20      76
   7   2 -12     128      95
   7  -2  12       4     103
   0  -3 -12   36769     935
   0  -3  12   34484     943
   1  -3  12     744     118
  -1  -3 -12     792     117
  -1   3  12     883     114
   1  -3 -12     826      93
  -1  -3  12     819     104
   2   3 -12    3958     208
   2  -3  12    4137     228
  -2  -3 -12    3113     234
   2  -3 -12    3501     194
   2   3  12    3064     225
  -2   3 -12    3993     230
  -2  -3  12    4081     197
  -3  -3 -12  102284    2634
   3   3 -12   98408    2624
   3  -3  12   97875    2643
  -3   3 -12  102321    2638
   3  -3 -12  100728    2608
   3   3  12   99192    2642
   3  -3 -12  102620    2640
  -4  -3 -12      41     111
   4  -3  12     186      86
   4   3 -12      86      68
  -4   3 -12      97     115
   4   3  12      35      88
   4  -3 -12      89      57
   4  -3 -12     121      64
   5   3 -12    3263     187
   5  -3  12    3084     214
  -5  -3 -12    2904     240
   5  -3 -12    3231     174
   5   3  12    3178     212
  -5   3 -12    3237     265
   6  -3  12    8757     353
  -6  -3 -12    9307     384
   6   3 -12    9099     337
  -6   3 -12    8811     400
   6   3  12    8671     345
   7  -3  12    1056     165
   0  -4 -12    4561     226
   0  -4  12    3454     236
   0   4 -12    3681     248
   1  -4  12    4222     201
  -1  -4 -12    4096     192
  -1   4  12    3836     200
   1  -4 -12    4097     174
   1   4  12    4067     205
  -1  -4  12    4100     183
  -1   4 -12    4269     206
   2   4 -12     143      69
  -2  -4 -12     141      95
   2  -4  12      77      81
   2  -4 -12     182      57
  -2   4 -12     183      96
   2   4  12      70      83
   3   4 -12    8837     300
   3  -4  12    8622     320
  -3  -4 -12    8593     329
   3   4  12    8760     317
   3  -4 -12    8792     303
  -3   4 -12    8474     327
   4   4 -12   35236     969
  -4  -4 -12   35998     988
   4  -4  12   34990     987
   4   4  12   34349     973
   4  -4 -12   35211     970
  -4   4 -12   35691     991
   5  -4  12    3378     222
  -5  -4 -12    3325     256
   5   4 -12    3348     201
   5   4  12    3610     216
   5  -4 -12    3423     194
  -5   4 -12    3296     267
   6   4 -12   35477     998
  -6  -4 -12   35529    1022
   6  -4  12   34890    1016
  -6   4 -12   36393    1036
   0   5  12     690     555
   0  -5  12     479     540
   0   5 -12     613     555
   0  -5 -12     415     521
   1  -5  12    3889     179
  -1  -5 -12    3771     174
   1   5 -12    3839     178
  -1  -5  12    3721     162
   1   5  12    3871     191
  -1   5 -12    3842     184
  -2  -5 -12    1124      93
   2  -5 -12     967      80
   2   5  12    1267      95
   3   5 -12     580      88
   3  -5  12     480     101
  -3  -5 -12     508     110
  -3   5 -12     413     115
   3  -5 -12     436      81
   3   5  12     329      93
   4  -5  12     403     108
   4   5 -12     515      88
  -4  -5 -12     336     125
   4  -5 -12     349      86
   4   5  12     407      98
  -4   5 -12     355     135
   5  -5  12    4226     241
  -5  -5 -12    4256     272
   5   5 -12    4201     216
   5  -5 -12    4273     218
   5   5  12    4337     229
  -5   5 -12    4381     282
  -6  -5 -12     245     145
   6   5 -12     286     101
   6  -5  12     142     112
  -6   5 -12      13     153
   6  -5 -12     145      90
   0  -6  12     119     425
   0   6 -12      84     441
   0   6  12     190     450
   1  -6  12      22      68
   1   6 -12      17      74
   1   6  12       9      76
  -1   6 -12       9      87
  -2  -6 -12   13796     467
   2  -6  12   14111     481
   2   6 -12   14682     474
  -2   6 -12   14503     486
   2  -6 -12   14216     481
   2   6  12   13861     481
   3   6 -12    3062     182
   3  -6  12    2815     207
  -3  -6 -12    2932     210
   3   6  12    2872     198
   3  -6 -12    2921     191
  -3   6 -12    2946     220
   4  -6  12   13021     427
  -4  -6 -12   12921     429
   4   6 -12   12843     408
  -4   6 -12   13351     434
   4   6  12   12159     406
   4  -6 -12   12736     407
  -5  -6 -12     110     128
   5  -6  12      90     106
   5   6 -12     145      89
   5  -6 -12      56      81
  -5   6 -12       4     139
  -6  -6 -12   20638     661
   6   6 -12   19843     636
   6  -6  12   19914     657
  -6   6 -12   20186     671
   6  -6 -12   20862     636
   0   7 -12    4833     519
   0  -7  12    4209     510
   0   7  12    2959     527
   1   7 -12    1007     108
   1  -7  12     679      89
  -1   7 -12     789     112
   1   7  12    1109     153
   2   7 -12    2656     175
   2  -7  12    2350     189
  -2   7 -12    2634     198
   2  -7 -12    2554     185
   2   7  12    2753     194
   3  -7  12    6057     272
   3   7 -12    6020     251
   3   7  12    6009     259
   3  -7 -12    6003     258
  -3   7 -12    5846     277
   4   7 -12    1039     143
   4  -7  12     932     131
   4  -7 -12    1087     151
   4   7  12     842     110
  -4   7 -12     730     144
  -5  -7 -12     101     128
   5   7 -12      71      90
   5  -7  12      54     113
  -5   7 -12      21     139
   5  -7 -12     102      89
  -6  -7 -12    1438     255
   6  -7 -12    1471     193
  -6   7 -12     965     195
   0   8 -12    1475     109
   0   8  12    1911     106
   1  -8  12     448      98
   1   8 -12     541     102
  -1   8 -12     370     110
   1  -8 -12     425     109
   1   8  12     486     110
   2  -8  12   25557     727
   2   8 -12   25434     722
   2  -8 -12   24592     727
  -2   8 -12   25939     723
   2   8  12   25373     726
   3  -8  12    2685     215
   3   8 -12    2894     189
  -3   8 -12    2368     217
   3  -8 -12    2797     207
   3   8  12    2954     207
   4  -8  12     903     143
   4   8 -12    1336     164
  -4   8 -12     895     155
   4  -8 -12    1252     169
   5   8 -12     568     119
   5  -8  12     368     143
   5  -8 -12     463     111
   0   9 -12     396     157
   0   9  12      40     183
   1   9 -12     588     139
   1  -9 -12     655     122
   1   9  12     887     176
  -1   9 -12     574     122
   2  -9  12    1430     185
   2   9 -12    1821     165
   2   9  12    1809     187
   2  -9 -12    1795     183
  -2   9 -12    1621     188
   3  -9  12    9102     361
   3   9 -12    9269     338
   3  -9 -12    9029     345
   3   9  12    9044     341
   4  -9  12     681     147
   4   9 -12    1131     167
   4  -9 -12    1133     178
   5  -9  12    1700     248
   5   9 -12    1667     194
   5  -9 -12    1661     193
   0  10  12   38276    1549
   0  10 -12   40490    1528
   1  10 -12    1545     151
   1 -10 -12    1236     133
  -1  10 -12    1254     138
   1  10  12    1615     189
   2  10 -12   27038     704
   2 -10  12   25991     713
   2 -10 -12   25769     715
   2  10  12   25342     709
   3 -10  12      19     116
   3  10 -12      75      93
   3 -10 -12     103     105
   4 -10  12     731     158
   4  10 -12    1070     177
   4 -10 -12     988     135
   0  11  12      52     212
   1  11  12    3629     222
   1 -11 -12    2652     217
   2  11 -12     357     119
   2 -11 -12     333     130
   3 -11  12       2     126
   3  11 -12      51      98
   3 -11 -12       3     107
   4  11 -12     603     135
   0  12  12   15787     724
   1 -12 -12      42     121
   1  12  12     309     125
   2 -12 -12   10875     419
   0  13  12    1953     141
   0   0 -13     134     106
  -1   0 -13       9      70
   1   0 -13       4      54
   1   0  13       4      70
  -1   0  13      26      59
  -2   0 -13       5      81
  -2   0  13     103      64
   2   0  13      30      70
   2   0 -13     107      66
   3   0 -13      26      63
  -3   0  13       3      58
   3   0  13      51      79
  -3   0 -13      10      97
   4   0  13      17      90
   4   0 -13       0      59
  -4   0 -13       5     115
  -5   0 -13       1     117
   5   0 -13      18      67
   5   0  13      75      93
   6   0  13       0      98
  -6   0 -13       0     129
   6   0 -13       5      74
   7   0 -13      14      86
   7   0  13       2     106
   0   1 -13  110649    2420
   0   1  13  105210    2256
   0  -1  13  110151    2255
   0  -1 -13  110449    2244
   1  -1  13      33      69
  -1  -1 -13       3      71
   1   1 -13      33      55
  -1   1  13       4      60
   1   1  13       4      62
  -1   1 -13      36      68
   1  -1 -13       2      56
  -1  -1  13      37      58
   2  -1  13   50365    1298
  -2   1  13   50084    1284
   2   1 -13   50320    1283
  -2  -1 -13   51422    1293
  -2  -1  13   48352    1276
   2  -1 -13   50709    1277
  -2   1 -13   50856    1296
   3   1 -13   15443     470
  -3   1  13   15008     465
   3  -1  13   15306     487
  -3  -1 -13   16057     498
   3  -1 -13   15669     466
   3   1  13   15510     487
  -3  -1  13   15890     461
  -3   1 -13   15865     499
   4   1 -13    3672     186
  -4  -1 -13    4079     245
   4  -1  13    3687     223
   4   1  13    3924     218
  -4   1 -13    3652     245
   4  -1 -13    3636     178
   5   1 -13      28      71
   5  -1  13      52      94
  -5  -1 -13       3     117
   5   1  13       3      98
   5  -1 -13      21      67
  -5   1 -13       2     125
  -6  -1 -13       9     129
   6  -1  13       2     101
   6   1 -13      48      78
  -6   1 -13       2     130
   6  -1 -13      45      74
   6   1  13       9      98
   7  -1  13      50     107
   7   1 -13     107      95
   7   1  13      20     112
   0  -2 -13    6514     110
   0  -2  13    5318     117
   1   2 -13     221      65
  -1   2  13     277      70
  -1  -2 -13     295      80
   1  -2  13     200      74
   1  -2 -13     200      64
  -1  -2  13     189      66
  -2   2  13    6666     248
   2  -2  13    7156     261
   2   2 -13    7048     244
  -2  -2 -13    6198     264
   2   2  13    6784     265
  -2   2 -13    6987     263
  -2  -2  13    7157     232
   2  -2 -13    6906     237
  -3  -2 -13   90064    2251
   3  -2  13   86273    2257
   3   2 -13   86019    2240
  -3   2 -13   89516    2254
   3   2  13   86303    2255
   3  -2 -13   88256    2226
  -4  -2 -13    3264     238
   4   2 -13    2990     173
   4  -2  13    3183     204
   4  -2 -13    3103     164
  -4   2 -13    3202     234
   4   2  13    3120     205
   5  -2  13      11      97
  -5  -2 -13      74     125
   5   2 -13     134      78
   5  -2 -13     132      71
   5   2  13     138     110
  -5   2 -13       1     124
  -6  -2 -13    1609     238
   6   2 -13    1608     161
   6  -2  13    1277     195
   6   2  13    1420     192
  -6   2 -13    1322     240
   0   3  13   13362     131
   0  -3 -13   14807     122
   0  -3  13   14975     129
   1  -3  13     608     125
  -1  -3 -13     616      96
  -1   3  13     657     127
   1   3 -13     656      85
  -1  -3  13     699     111
   1   3  13     390      76
   1  -3 -13     617      98
   2  -3  13      23      84
  -2   3  13     164      76
   2   3 -13      46      76
  -2  -3 -13      23      96
   2   3  13      19      84
   2  -3 -13     131      66
  -2   3 -13      36      92
  -3  -3 -13    4013     227
   3   3 -13    3975     191
   3  -3  13    4142     215
  -3   3 -13    4153     232
   3   3  13    4000     217
   3  -3 -13    4123     177
  -4  -3 -13   41262    1116
   4  -3  13   40081    1111
   4   3 -13   39395    1094
   4  -3 -13   40435    1089
   4  -3 -13   41051    1099
  -4   3 -13   41260    1119
   4   3  13   39197    1104
   5  -3  13     492     115
  -5  -3 -13     302     132
   5   3 -13     457      98
   5  -3 -13     380      84
  -5   3 -13     344     142
   5   3  13     524     114
   6  -3  13    8655     371
  -6  -3 -13    8753     400
   6   3 -13    8757     347
  -6   3 -13    8876     413
   6   3  13    8598     363
   0   4 -13   17725     688
   0  -4 -13   17167     664
   0   4  13   15305     680
   0  -4  13   17040     675
   1   4 -13      93      62
  -1  -4 -13     136      80
  -1   4  13     103      71
   1  -4  13     150      75
  -1  -4  13     111      61
   1  -4 -13      74      56
  -1   4 -13     223      81
   1   4  13      81      77
   2  -4  13     876     167
   2   4 -13     958     141
  -2  -4 -13     391     172
   2   4  13     399     170
  -2   4 -13     787     176
   2  -4 -13     759     125
   3  -4  13    3200     198
  -3  -4 -13    3266     212
   3   4 -13    3079     174
   3  -4 -13    3183     178
   3   4  13    3073     199
  -3   4 -13    3139     213
  -4  -4 -13     551     129
   4   4 -13     609      90
   4  -4  13     637     107
  -4   4 -13     657     134
   4   4  13     613     103
   4  -4 -13     532      89
   5   4 -13     490     101
   5  -4  13     559     119
  -5  -4 -13     320     142
  -5   4 -13     348     148
   5  -4 -13     386      91
  -6  -4 -13    5278     316
   6   4 -13    5377     251
   6  -4  13    5303     280
  -6   4 -13    5022     330
   0   5  13      35     142
   0  -5 -13      58     127
   0  -5  13       4     129
   0   5 -13       5     134
  -1  -5 -13    2474     163
   1   5 -13    2724     159
   1  -5  13    2736     169
  -1   5  13    2723     172
  -1   5 -13    2734     180
   1   5  13    2554     180
   2  -5  13    6161     253
  -2  -5 -13    6325     248
   2   5 -13    6625     243
  -2   5 -13    6883     267
   2   5  13    6753     265
   3  -5  13    4451     230
   3   5 -13    4322     210
  -3  -5 -13    4962     236
  -3   5 -13    4553     244
   3  -5 -13    4716     215
   3   5  13    4766     227
   4  -5  13   20329     640
   4   5 -13   19863     623
  -4  -5 -13   21186     642
   4  -5 -13   21086     625
  -4   5 -13   20635     646
   4   5  13   20654     627
   5   5 -13    2008     183
   5  -5  13    1883     200
  -5  -5 -13    1485     237
  -5   5 -13    1420     248
   5   5  13    2057     198
   5  -5 -13    1863     170
   6   5 -13   22294     672
   6  -5  13   21793     697
  -6  -5 -13   22197     706
  -6   5 -13   22805     721
   0   6  13    1333     194
   0  -6  13    1584     168
   0   6 -13    1459     179
   1   6 -13     673     142
  -1   6  13     755     147
   1  -6  13     695     139
   1   6  13     761     159
  -1   6 -13     666     149
   2  -6  13    1024     156
   2   6 -13    1099     135
   2  -6 -13     878     160
  -2   6 -13    1175     173
   2   6  13     862     168
   3  -6  13    1918     183
   3   6 -13    1943     160
  -3  -6 -13    1838     186
   3  -6 -13    1908     168
   3   6  13    1918     182
  -3   6 -13    1858     204
   4   6 -13     654     110
   4  -6  13     584     120
  -4  -6 -13     467     131
  -4   6 -13     331     140
   4  -6 -13     580     102
   4   6  13     511     112
  -5  -6 -13       0     127
   5  -6  13       0     104
   5   6 -13      13      88
   5  -6 -13      23      81
  -5   6 -13       6     132
  -6  -6 -13     438     156
   6  -6 -13     353     104
  -6   6 -13     186     174
   0   7  13      92     289
   0   7 -13     129     279
   1  -7  13      11      74
   1   7 -13       8      81
   1   7  13       3      88
  -1   7 -13      11      94
   2  -7  13   19615     532
   2   7 -13   20060     529
   2  -7 -13   18611     537
  -2   7 -13   20465     537
   2   7  13   19848     538
   3  -7  13    1336     177
   3   7 -13    1346     149
   3   7  13    1267     170
   3  -7 -13    1348     162
  -3   7 -13    1261     152
   4   7 -13    2831     190
   4  -7  13    2496     216
   4  -7 -13    2665     192
   4   7  13    2541     199
  -4   7 -13    2228     230
   5   7 -13      30      92
   5  -7  13      23     113
  -5   7 -13       1     140
   5  -7 -13       6      86
  -6  -7 -13   26507     822
   6  -7 -13   25612     817
  -6   7 -13   26384     832
   0   8 -13    2737     102
   0   8  13    2397     107
   1  -8  13    2999     194
   1   8 -13    3088     195
   1   8  13    3080     216
  -1   8 -13    3145     206
   2   8 -13    1251     153
   2  -8  13    1055     173
  -2   8 -13    1155     181
   2  -8 -13    1057     173
   2   8  13    1334     182
   3  -8  13   12657     454
   3   8 -13   12630     436
   3   8  13   12439     440
   3  -8 -13   12973     449
  -3   8 -13   12890     451
   4   8 -13     527     116
   4  -8  13     363     130
   4  -8 -13     444     110
  -4   8 -13     246     146
   5   8 -13    4245     249
   5  -8  13    3720     278
   5  -8 -13    4085     249
   0   9  13   28988     720
   0   9 -13   27273     705
   1   9 -13     152      98
   1   9  13     127     113
  -1   9 -13      25     106
   2  -9  13   31885     949
   2   9 -13   32043     940
   2  -9 -13   31217     950
  -2   9 -13   31541     938
   2   9  13   31685     944
   3   9 -13    2012     176
   3  -9  13    1844     205
  -3   9 -13    1390     161
   3  -9 -13    1949     188
   3   9  13    1847     191
   4  -9  13     241     136
   4   9 -13     571     117
   4  -9 -13     450     116
   0  10  13    1449     119
   0  10 -13    1287     104
   1  10 -13    1459     179
   1  10  13    1599     208
  -1  10 -13    1306     185
   2  10 -13    1812     166
   2 -10  13    1244     161
   2 -10 -13    1577     197
   2  10  13    1616     195
   3  10 -13     510     115
   3 -10  13     321     130
   3 -10 -13     482     118
   4 -10  13    1228     176
   4  10 -13    1333     182
   0  11  13   16005     326
   1  11  13    2306     230
   2  11 -13   18500     561
   2  11  13   18167     571
   2 -11 -13   17426     579
   3  11 -13     273     109
   3 -11  13      18     133
   0  12  13     622     286
   1  12  13    1429     221
   0   0 -14  101412    3587
   0   0  14   98902    3066
  -1   0 -14     962     133
   1   0 -14     972     112
   1   0  14    1000     144
  -1   0  14     820     122
   2   0  14   94636    2504
  -2   0  14   93362    2485
   2   0 -14   95983    2480
  -2   0 -14   97832    2494
  -3   0  14   68038    1829
   3   0  14   69351    1853
  -3   0 -14   72454    1854
   3   0 -14   70134    1833
  -4   0 -14       7     112
   4   0  14      86      95
   4   0 -14      17      65
  -5   0 -14       1     121
   5   0  14       1      97
   5   0 -14      73      73
   6   0 -14      62      77
   6   0  14       4     103
  -6   0 -14       4     135
   0  -1  14    5169     522
   0   1  14    3874     523
   0  -1 -14    4273     517
   0   1 -14    5451     523
   1   1 -14    1042     109
  -1  -1 -14    1173     135
  -1   1  14    1077     126
   1  -1  14    1046     140
  -1  -1  14     981     119
   1  -1 -14    1032     108
  -1   1 -14     934     133
   1   1  14    1020     145
  -2  -1 -14   20668     580
   2  -1  14   20425     578
  -2   1  14   21828     561
   2   1 -14   19865     563
   2   1  14   19660     576
  -2   1 -14   20681     578
  -2  -1  14   19414     553
   2  -1 -14   22132     557
  -3  -1 -14   63770    1649
   3  -1  14   60992    1652
  -3   1  14   62511    1631
   3   1 -14   61897    1634
  -3   1 -14   62746    1653
   3   1  14   62171    1651
   3  -1 -14   63971    1627
  -4  -1 -14    6884     316
   4   1 -14    6261     261
   4  -1  14    6548     298
   4  -1 -14    6787     258
  -4   1 -14    6760     310
   4   1  14    6525     292
   5  -1  14      50      99
  -5  -1 -14       1     124
   5   1 -14      73      78
   5   1  14     105     111
  -5   1 -14      45     126
   5  -1 -14     140      71
  -6  -1 -14     710     166
   6   1 -14    1037     147
   6  -1  14     719     133
  -6   1 -14     747     171
   6  -1 -14    1166     144
   6   1  14     777     137
   0   2  14   29290    1833
   0  -2 -14   30196    1815
   0  -2  14   29346    1828
   0   2 -14   29860    1827
  -1   2  14      21      67
   1  -2  14      64      73
   1   2 -14      15      58
  -1  -2 -14      24      77
   1   2  14       0      69
  -1   2 -14       0      71
   1  -2 -14      10      59
  -1  -2  14      35      65
  -2   2  14     676      84
   2  -2  14     630      97
   2   2 -14     450      81
  -2  -2 -14     672      97
   2   2  14     659      95
   2  -2 -14     696      78
  -2   2 -14     589      98
  -2  -2  14     416      71
   3  -2  14    2463     179
   3   2 -14    2386     152
  -3   2  14    2661     155
  -3  -2 -14    2462     204
   3  -2 -14    2623     140
   3   2  14    2312     182
  -3   2 -14    2421     190
   4   2 -14   26073     758
   4  -2  14   25809     773
  -4  -2 -14   27334     788
   4   2  14   26464     774
   4  -2 -14   28128     747
  -4   2 -14   27628     788
   5   2 -14     367      95
  -5  -2 -14     290     135
   5  -2  14     248     110
   5  -2 -14     383      84
   5   2  14     369     123
  -5   2 -14     176     137
  -6  -2 -14    4100     283
   6   2 -14    4030     219
   6  -2  14    4026     259
   6   2  14    4005     253
  -6   2 -14    3999     299
   0   3 -14    1218     427
   0   3  14    1589     428
   0  -3  14    1272     423
   0  -3 -14    1756     413
   1  -3  14    1152     144
  -1   3  14    1160     143
  -1  -3 -14    1150     142
   1   3 -14    1276     126
   1  -3 -14    1197     118
  -1  -3  14    1309     133
   1   3  14    1300     153
  -1   3 -14    1191     140
   2   3 -14     297      81
  -2   3  14     187      87
  -2  -3 -14      40      92
   2  -3  14      61      95
  -2   3 -14      65      93
   2  -3 -14     295     103
   2   3  14     102     102
   3   3 -14    9662     318
   3  -3  14    9431     335
  -3  -3 -14    9456     345
   3  -3 -14    9306     298
   3   3  14    9168     334
  -3   3 -14    9267     346
   4   3 -14     251      75
  -4  -3 -14     102     120
   4  -3  14     236      95
  -4   3 -14     168     123
   4   3  14     436     105
  -5  -3 -14    2050     238
   5   3 -14    2409     186
   5  -3  14    2792     215
  -5   3 -14    2259     245
   6   3 -14     464     104
  -6  -3 -14     333     156
   6  -3  14     369     127
  -6   3 -14     232     165
   6   3  14     512     127
   0   4 -14   10796    1038
   0   4  14   10293    1041
   0  -4 -14   10713    1017
   0  -4  14   10305    1028
   1  -4  14    1001     139
  -1  -4 -14     861     131
   1   4 -14     972     121
  -1   4  14     849     107
   1  -4 -14     864     105
  -1   4 -14     890     142
   1   4  14     994     151
  -1  -4  14     914     121
  -2   4  14    3839     191
   2  -4  14    3517     196
   2   4 -14    3716     176
  -2  -4 -14    3896     194
  -2   4 -14    3834     205
   2   4  14    3976     205
   3   4 -14    1570     137
   3  -4  14    1754     170
  -3  -4 -14    1635     187
  -3   4 -14    1621     191
   3   4  14    1615     171
   4  -4  14   28365     842
   4   4 -14   28118     825
  -4  -4 -14   29580     846
   4   4  14   28425     833
  -4   4 -14   29202     853
   4  -4 -14   29480     829
  -5  -4 -14    1640     235
   5   4 -14    2169     187
   5  -4  14    1718     205
   5   4  14    2087     205
  -5   4 -14    1629     252
   5  -4 -14    1874     171
   6   4 -14    7420     311
   6  -4  14    7464     340
  -6  -4 -14    7025     361
  -6   4 -14    7500     384
   0   5  14   12137     354
   0   5 -14   13112     354
   0  -5  14   12796     340
  -1  -5 -14      10      77
   1  -5  14       7      75
   1   5 -14      11      70
  -1   5  14       0      79
  -1   5 -14       7      82
   1   5  14      10      82
   2  -5  14     579      96
   2   5 -14     536      83
  -2  -5 -14     282      97
  -2   5 -14     583     108
   2   5  14     535     102
   3  -5  14     378      97
  -3  -5 -14     217     109
  -3   5 -14      65     112
   3  -5 -14     268      85
   3   5  14     261      96
   4  -5  14    1222     186
   4   5 -14    1324     147
  -4  -5 -14     992     153
  -4   5 -14    1097     167
   4  -5 -14    1206     157
   4   5  14    1320     175
  -5  -5 -14     622     151
   5  -5  14     711     132
   5   5 -14     866     161
   5   5  14    1226     190
   5  -5 -14     776     152
  -5   5 -14     594     163
  -6  -5 -14    5217     323
  -6   5 -14    5216     349
   0  -6  14    1136     203
   0   6  14    1137     231
   0   6 -14    1207     213
  -1   6  14    2276     172
   1   6 -14    2336     163
   1  -6  14    2106     163
  -1   6 -14    2183     173
   1   6  14    2367     181
   2  -6  14   11845     467
   2   6 -14   11943     455
  -2   6 -14   12383     476
   2   6  14   11700     471
   3  -6  14    4380     247
  -3  -6 -14    4017     254
   3   6 -14    4521     227
   3  -6 -14    4163     237
   3   6  14    4155     244
  -3   6 -14    4174     255
   4   6 -14    5976     266
   4  -6  14    5833     291
  -4  -6 -14    5860     297
   4   6  14    5780     277
   4  -6 -14    6147     272
  -4   6 -14    5888     306
   5   6 -14    2578     196
  -5  -6 -14    2204     241
   5  -6  14    2555     221
  -5   6 -14    1976     251
   5  -6 -14    2353     191
  -6  -6 -14   31466     961
   6  -6 -14   34102     934
   0   7 -14    2940     385
   0   7  14    2944     399
  -1   7  14    3159     205
   1  -7  14    3228     187
   1   7 -14    3231     198
   1   7  14    3194     214
  -1   7 -14    3260     204
   2   7 -14     685     111
   2  -7  14     522     112
  -2   7 -14     603     130
   2   7  14     628     118
   3  -7  14   10864     386
   3   7 -14   10600     364
   3  -7 -14   11424     385
   3   7  14   10420     375
  -3   7 -14   10550     390
   4  -7  14     487     121
   4   7 -14     381      96
   4   7  14     296     105
   4  -7 -14     358      93
  -4   7 -14      15     136
   5   7 -14    4509     239
   5  -7  14    3982     265
  -5   7 -14    3533     293
   5  -7 -14    4229     242
   0   8  14   14344     373
   0   8 -14   14064     360
  -1   8  14       2      94
   1   8 -14      11      84
   1  -8  14       2      90
   1   8  14      12     102
  -1   8 -14       3      99
   2   8 -14   31913     943
   2  -8  14   32134     949
   2   8  14   32210     950
  -2   8 -14   33232     949
   3  -8  14     409     122
   3   8 -14     635     111
  -3   8 -14     288     137
   3   8  14     517     116
   3  -8 -14     421     112
   4   8 -14     586     123
   4  -8  14     491     134
  -4   8 -14     294     148
   4  -8 -14     540     116
   0   9 -14    4777     385
   0   9  14    4682     401
   1   9 -14      32      90
  -1   9  14      15     105
  -1   9 -14       3     100
   1   9  14     190     109
   2   9 -14     286     108
   2  -9  14     150     112
   2  -9 -14     222     114
  -2   9 -14     113     118
   2   9  14     372     120
   3   9 -14    1443     163
   3  -9  14    1130     155
   3  -9 -14    1300     189
   3   9  14    1303     188
  -3   9 -14     835     156
   4  -9  14       0     125
   4   9 -14     188     109
   4  -9 -14     141     112
   0  10 -14   18904     812
   0  10  14   16681     830
   1  10 -14     238     100
  -1  10 -14      41     111
   1  10  14     330     120
   2  10 -14   26104     759
   2 -10 -14   24569     770
   2  10  14   25118     765
   3  10 -14     997     166
   3 -10  14    1059     152
   3 -10 -14     949     136
   0  11  14    1420     287
   1  11 -14     995     134
   1  11  14    1044     148
   2  11 -14     330     123
   2 -11 -14     250     136
   2  11  14     309     134
   3 -11  14    5635     324
   3  11 -14    5513     280
   0  12  14    6012     368
   1  12  14     749     143
   0   0 -15     310     140
   1   0  15       8      81
   1   0 -15       2      61
  -1   0  15       2      68
  -1   0 -15       4      75
   2   0  15      98      86
  -2   0 -15      40      92
   2   0 -15      11      64
   3   0 -15       1      65
  -3   0 -15       8     106
  -3   0  15       0      64
   3   0  15      47      89
   4   0 -15      16      66
   4   0  15       0      94
  -4   0 -15       0     114
   5   0  15       5     103
   5   0 -15       1      70
  -5   0 -15       2     123
   6   0 -15      22      80
   6   0  15      27     115
  -6   0 -15       6     141
   0  -1 -15   37451     931
   0   1  15   36421     939
   0  -1  15   36920     936
   0   1 -15   37314     935
   1   1 -15    1052     119
  -1  -1 -15    1019     137
   1  -1  15    1113     150
  -1   1  15    1098     141
  -1   1 -15     949     136
   1  -1 -15    1022     119
   1   1  15     951     154
  -1  -1  15    1087     133
  -2   1  15   14768     473
  -2  -1 -15   15761     489
   2  -1  15   15462     491
   2   1 -15   15070     471
   2   1  15   15112     487
  -2  -1  15   14918     464
  -2   1 -15   15174     491
   2  -1 -15   15052     468
   3   1 -15    8467     308
   3  -1  15    8619     331
  -3  -1 -15    9035     347
  -3   1  15    8620     306
   3  -1 -15    8419     303
   3   1  15    8664     333
  -3   1 -15    8571     340
   4   1 -15    9234     330
  -4  -1 -15    9588     378
   4  -1  15    9217     362
   4   1  15    9406     358
  -4   1 -15    9578     380
   4  -1 -15    9473     327
   5  -1  15     519     117
   5   1 -15     502     102
  -5  -1 -15     563     146
   5   1  15     616     132
   5  -1 -15     479      98
  -5   1 -15     409     141
   6  -1  15    2269     227
  -6  -1 -15    2405     256
   6   1 -15    2370     188
   6   1  15    2414     226
   6  -1 -15    2584     182
  -6   1 -15    2411     268
   0   2 -15     387     234
   0  -2  15     519     231
   0  -2 -15     485     224
   0   2  15     497     240
  -1   2  15    2670     173
   1   2 -15    2560     158
   1  -2  15    2832     179
  -1  -2 -15    2851     175
   1   2  15    2692     184
  -1  -2  15    2576     167
   1  -2 -15    2720     154
  -1   2 -15    2782     178
   2   2 -15    2434     166
  -2   2  15    2699     176
  -2  -2 -15    3300     198
   2  -2  15    2746     192
  -2  -2  15    2376     162
  -2   2 -15    2733     195
   2  -2 -15    2725     163
   2   2  15    3111     196
  -3   2  15   11512     383
   3  -2  15   11563     404
   3   2 -15   10946     386
  -3  -2 -15   11702     414
  -3   2 -15   11736     415
   3  -2 -15   11712     373
   3   2  15   11207     404
   4  -2  15    1845     184
  -4  -2 -15    1748     212
  -4   2  15    2030     153
   4   2 -15    1841     145
   4   2  15    2044     190
  -4   2 -15    1781     211
   4  -2 -15    2025     142
   5  -2  15    2210     215
   5   2 -15    2270     172
  -5  -2 -15    1979     241
   5   2  15    2413     216
  -5   2 -15    1806     238
   6   2 -15     116      87
  -6  -2 -15       2     146
   6  -2  15      45     114
  -6   2 -15       0     158
   6   2  15      82     116
   0   3  15   23085     175
   0  -3  15   23199     164
   0   3 -15   24191     167
   0  -3 -15   22781     150
   1   3 -15     562      94
  -1   3  15     422      98
   1  -3  15     522     100
  -1  -3 -15     453     103
   1  -3 -15     458      88
  -1   3 -15     496     104
  -1  -3  15     664      95
   1   3  15     430     100
  -2   3  15    4064     243
   2   3 -15    3978     238
   2  -3  15    4037     253
  -2  -3 -15    3982     256
   2   3  15    3846     260
  -2   3 -15    4237     260
   2  -3 -15    4217     221
  -3  -3 -15     631     132
   3  -3  15     622     116
   3   3 -15     741     126
  -3   3  15     610     136
   3  -3 -15     623     114
  -3   3 -15     667     132
   3   3  15     642     118
  -4  -3 -15   24187     711
   4   3 -15   23561     682
   4  -3  15   22986     698
  -4   3 -15   24405     717
   4   3  15   23352     699
   5   3 -15     415     107
   5  -3  15     291     116
  -5  -3 -15     181     136
   5   3  15     481     124
  -5   3 -15     264     148
  -6  -3 -15    2891     276
   6   3 -15    3268     210
   6   3  15    2732     245
   0  -4  15    2299     138
   0  -4 -15    2455     125
   0   4  15    2237     149
   0   4 -15    2375     137
  -1  -4 -15     324      93
   1  -4  15     287      91
   1   4 -15     278      79
  -1   4  15     208      87
   1   4  15     189      90
  -1   4 -15     227      92
   1  -4 -15     306      73
  -2   4  15      89      81
   2   4 -15      66      72
  -2  -4 -15      32      93
   2  -4  15      67      88
  -2   4 -15      46      95
   2   4  15      36      91
   3   4 -15    3239     194
  -3   4  15    3040     202
   3  -4  15    2956     219
  -3  -4 -15    2864     227
  -3   4 -15    2819     235
   3   4  15    2935     218
   4  -4  15      12      95
   4   4 -15       8      68
  -4  -4 -15       4     114
   4   4  15      50      96
  -4   4 -15      12     121
  -5  -4 -15       2     127
   5  -4  15       1     107
   5   4 -15      63      88
   5   4  15     152     105
   5  -4 -15       6      81
  -5   4 -15       1     138
   6   4  15    1433     233
   0  -5  15     805     143
   0   5 -15     886     146
   0   5  15     727     157
   1  -5  15     423      92
   1   5 -15     372      89
  -1   5  15     433      96
   1   5  15     360     100
  -1   5 -15     324     100
  -2  -5 -15    7686     306
   2   5 -15    7962     307
  -2   5  15    7412     313
   2  -5  15    7922     313
  -2   5 -15    8298     322
   2   5  15    8466     325
   3   5 -15    2814     182
  -3  -5 -15    2870     221
   3  -5  15    3037     210
   3   5  15    2654     204
  -3   5 -15    3010     223
   4  -5  15   10760     399
  -4  -5 -15   10816     400
   4   5 -15   10505     370
   4  -5 -15   11141     385
   4   5  15   10487     384
  -4   5 -15   10770     413
   5   5 -15     456     111
   5  -5  15     417     119
  -5  -5 -15     305     142
  -5   5 -15     120     153
   5   5  15     561     118
   5  -5 -15     445     104
   0   6 -15    4888     217
   0   6  15    5019     230
   1  -6  15    2254     178
  -1   6  15    2400     194
   1   6 -15    2531     183
  -1   6 -15    2309     188
   1   6  15    2574     203
   2   6 -15     896     103
  -2   6  15     811     110
   2  -6  15     681     107
   2   6  15     737     116
  -2   6 -15     841     126
   3   6 -15    3542     201
   3  -6  15    3594     228
   3   6  15    3445     224
  -3   6 -15    3528     246
  -4  -6 -15     863     152
   4  -6  15     962     195
   4   6 -15    1049     146
  -4   6 -15     607     159
   4   6  15     820     134
   4  -6 -15     956     167
   5  -6  15    2514     229
  -5  -6 -15    1974     254
   5   6 -15    2529     198
   5   6  15    2553     223
   5  -6 -15    2483     207
  -5   6 -15    1915     261
   0   7  15   10668     528
   0   7 -15   10272     513
   1  -7  15    1072     158
  -1   7  15    1021     180
   1   7 -15     937     161
  -1   7 -15     934     174
   1   7  15     912     182
   2  -7  15   25536     676
   2   7 -15   24831     669
   2   7  15   24513     679
  -2   7 -15   26145     677
   3  -7  15    1956     204
   3   7 -15    2336     178
   3   7  15    2037     203
  -3   7 -15    1656     217
   4  -7  15    1885     217
   4   7 -15    1780     172
   4   7  15    1567     195
   4  -7 -15    1670     192
  -4   7 -15    1372     234
  -5   7 -15     721     176
   0   8  15    2656     204
   0   8 -15    2951     182
   1   8 -15      37      94
  -1   8  15     134     108
   1   8  15      89     112
  -1   8 -15       0     104
   2   8 -15     148      91
   2  -8  15      12     100
  -2   8 -15     141     120
   2   8  15     164     109
   3  -8  15    2121     218
   3   8 -15    2334     181
   3  -8 -15    2314     214
  -3   8 -15    1604     232
   3   8  15    2253     210
   4  -8  15      10     122
   4   8 -15     192     103
  -4   8 -15       1     137
   4   8  15      29     112
   4  -8 -15     130     106
   0   9  15    9539     322
   0   9 -15    9813     303
  -1   9  15      65     108
   1   9 -15      41      98
  -1   9 -15       7     111
   1   9  15      32     117
   2  -9  15   33663    1037
   2   9 -15   35578    1037
   2   9  15   34551    1039
  -2   9 -15   33933    1033
   3   9 -15     380     112
   3  -9  15     267     124
  -3   9 -15      70     134
   3   9  15     346     123
   3  -9 -15     267     121
   0  10  15    3680     248
   0  10 -15    3288     215
  -1  10  15     144     122
   1  10 -15      88     108
  -1  10 -15       5     117
   1  10  15     122     127
   2  10 -15     508     121
   2  10  15     411     133
   3 -10  15    6865     354
   3  10 -15    7639     330
   0  11  15    7093     302
   1  11 -15      60     107
  -1  11  15     243     135
   1  11  15     106     131
   2  11 -15     360     116
   2  11  15     412     133
   0   0 -16   16125     146
   0   0  16   14602     157
  -1   0  16    1022     100
  -1   0 -16     935     106
   1   0 -16     975      92
   1   0  16     925     109
   2   0  16     132      98
  -2   0  16     113      79
   2   0 -16      90      77
  -3   0 -16    6052     298
   3   0  16    5873     282
   3   0 -16    5670     255
   4   0  16   22650     708
   4   0 -16   22193     679
  -4   0 -16   23792     723
   5   0 -16    3082     189
   5   0  16    2515     233
  -5   0 -16    2475     252
   6   0 -16    6052     260
   0   1 -16    1641      88
   0   1  16    1696      86
   0  -1 -16    1785      81
   0  -1  16    1487      83
   1  -1  16     548     102
   1   1 -16     600      93
  -1  -1 -16     619     105
  -1   1  16     551      96
  -1  -1  16     569      94
   1   1  16     642     109
   1  -1 -16     545      91
  -1   1 -16     537     103
   2  -1  16    8002     325
  -2   1  16    7799     306
  -2  -1 -16    8979     328
   2   1 -16    8868     302
  -2   1 -16    8393     331
   2   1  16    8664     322
   2  -1 -16    7768     298
  -2  -1  16    8837     300
  -3  -1 -16    2405     204
   3  -1  16    2529     192
  -3   1  16    2456     165
   3   1 -16    2594     159
   3   1  16    2390     193
   3  -1 -16    2239     157
  -3   1 -16    2307     210
   4   1 -16    1875     139
   4  -1  16    1668     196
  -4  -1 -16    1470     208
   4   1  16    1584     186
   4  -1 -16    1569     138
  -4   1 -16    1508     214
   5   1 -16    2166     173
  -5  -1 -16    1657     241
   5  -1  16    1630     211
   5  -1 -16    1932     168
  -5   1 -16    1642     231
   5   1  16    1819     224
   6   1 -16     635     111
   6   1  16     387     142
   0   2 -16   29580     839
   0  -2 -16   30351     830
   0   2  16   28879     841
   0  -2  16   29323     835
   1   2 -16     353      83
   1  -2  16     353      93
  -1  -2 -16     289      94
  -1   2  16     259      89
  -1  -2  16     357      85
  -1   2 -16     415      98
   1  -2 -16     357      80
   1   2  16     406      96
   2  -2  16   14156     433
  -2   2  16   14163     420
  -2  -2 -16   14266     435
   2   2 -16   14133     418
   2  -2 -16   14430     407
  -2   2 -16   14631     439
   2   2  16   14225     439
  -3  -2 -16   14845     488
   3  -2  16   14665     486
   3   2 -16   14531     468
  -3   2  16   14677     465
   3  -2 -16   15068     457
  -3   2 -16   14900     495
   3   2  16   14518     483
  -4  -2 -16   13411     472
   4  -2  16   12236     451
   4   2 -16   12656     431
   4  -2 -16   13220     421
  -4   2 -16   13236     472
   4   2  16   13053     454
  -5  -2 -16      13     134
   5  -2  16     241     116
   5   2 -16     254      93
   5   2  16     212     116
  -5   2 -16      13     138
   6   2  16    1903     239
   0  -3  16    1541     480
   0   3  16    1594     493
   0   3 -16    1571     485
   0  -3 -16    1681     472
  -1  -3 -16    1164     151
   1   3 -16    1192     130
  -1   3  16    1239     159
   1  -3  16    1342     158
   1  -3 -16    1336     124
  -1   3 -16    1344     152
   1   3  16    1415     169
  -1  -3  16    1264     143
   2  -3  16    2880     196
  -2   3  16    2658     184
  -2  -3 -16    2716     196
   2   3 -16    2980     174
  -2   3 -16    2898     197
   2  -3 -16    2738     158
   2   3  16    2643     205
   3   3 -16    4125     210
   3  -3  16    4275     233
  -3  -3 -16    4157     245
  -3   3  16    4083     217
   3   3  16    4298     233
  -3   3 -16    4280     248
   4   3 -16     505      94
   4  -3  16     477     115
  -4   3  16     509      98
  -4  -3 -16     382     133
   4   3  16     517     119
  -4   3 -16     367     133
  -5  -3 -16       1     130
   5  -3  16     104     111
   5   3 -16      65      88
   5   3  16     223     121
  -5   3 -16       0     141
   6   3  16     529     150
   0  -4 -16    4446     660
   0  -4  16    4782     672
   0   4  16    4409     686
   0   4 -16    4695     682
   1   4 -16     294      81
  -1   4  16     167      88
   1  -4  16     310      93
  -1  -4 -16     152      88
  -1   4 -16     182      90
   1   4  16     236      95
  -2   4  16    7252     279
   2  -4  16    7731     284
  -2  -4 -16    7676     282
   2   4 -16    7804     269
  -2   4 -16    7945     294
   2   4  16    7515     293
   3   4 -16    1920     156
  -3   4  16    1893     172
   3  -4  16    1721     190
  -3  -4 -16    1656     197
  -3   4 -16    1909     211
   3   4  16    1775     191
  -4  -4 -16    9451     396
  -4   4  16   10077     364
   4   4 -16    9717     364
   4  -4  16    9621     387
  -4   4 -16    9907     405
   4   4  16    9368     379
   5  -4  16       2     111
   5   4 -16      67      91
  -5  -4 -16      12     130
  -5   4 -16       2     136
   5   4  16      19     109
   0   5 -16     317     253
   0   5  16     225     266
   0  -5  16     324     249
   1   5 -16    3431     198
   1  -5  16    3439     209
  -1   5  16    3516     219
  -1   5 -16    3415     220
   1   5  16    3490     223
  -2  -5 -16     191     115
   2   5 -16     246     105
   2  -5  16     201     110
  -2   5  16     319     115
   2   5  16     201     117
  -2   5 -16     238     126
  -3   5  16     434     105
   3  -5  16     391     118
  -3  -5 -16     294     121
   3   5 -16     494     101
  -3   5 -16     308     138
   3   5  16     488     117
   4  -5  16      16     109
   4   5 -16       0      75
   4   5  16      13     102
  -4   5 -16       1     132
   5  -5  16    4031     283
  -5  -5 -16    3704     284
   5   5 -16    4117     254
  -5   5 -16    3443     293
   5   5  16    4016     261
   0   6 -16   15018     553
   0   6  16   14758     557
  -1   6  16    1242     188
   1   6 -16    1197     169
   1  -6  16    1049     166
  -1   6 -16    1235     175
   1   6  16    1182     191
   2   6 -16   20223     659
  -2   6  16   20554     672
   2  -6  16   19766     666
  -2   6 -16   20587     671
   2   6  16   20160     675
   3   6 -16    1297     151
   3  -6  16    1430     194
   3   6  16    1298     188
  -3   6 -16    1139     161
   4   6 -16    3713     217
   4  -6  16    3395     258
   4   6  16    3513     238
  -4   6 -16    3179     273
   5   6  16    1363     218
   5  -6 -16    1535     201
   0   7  16    4318     296
   0   7 -16    4199     279
   1  -7  16       0      89
  -1   7  16      19      99
   1   7 -16       3      89
  -1   7 -16       0     105
   1   7  16       2     105
   2  -7  16     252     119
   2   7 -16     424     115
  -2   7  16     385     117
   2   7  16     383     127
  -2   7 -16     301     140
   3  -7  16     699     128
   3   7 -16     715     122
   3   7  16     599     126
  -3   7 -16     429     142
   4  -7  16     570     138
  -4   7 -16     351     158
   4   7  16     495     124
   0   8 -16    8421     316
   0   8  16    8226     333
   1   8 -16     607     122
  -1   8  16     790     134
   1   8  16     843     137
  -1   8 -16     725     135
  -2   8  16   32465     953
   2  -8  16   33773     948
   2   8 -16   34448     944
   2   8  16   33327     953
  -2   8 -16   35093     954
   3  -8  16    1402     206
   3   8 -16    1547     164
   3   8  16    1393     200
  -3   8 -16    1066     166
  -4   8 -16       1     144
   4   8  16       3     111
   0   9 -16    2800     214
   0   9  16    3168     240
   1   9 -16      46      98
  -1   9  16     243     119
   1   9  16      91     122
  -1   9 -16       6     113
   2   9 -16      85     108
  -2   9  16     101     114
  -2   9 -16       1     124
   2   9  16      71     122
   3   9 -16    7137     312
   3  -9  16    7188     334
   3   9  16    6697     322
  -3   9 -16    6720     342
   0  10 -16    4130     304
   0  10  16    3799     321
   1  10 -16       0     100
  -1  10  16      44     122
  -1  10 -16       5     114
   1  10  16       8     128
   2  10 -16    1716     189
   2  10  16    1819     221
  -2  10 -16    1395     166
   3 -10  16       2     133
   1  11 -16    1588     188
   0   0  17       0      98
   0   0 -17      36      86
  -1   0  17       2      74
  -1   0 -17       1      81
   1   0  17       1      85
   1   0 -17       2      64
  -2   0  17     118      88
   2   0 -17      49      77
   2   0  17      26      96
  -2   0 -17       2      97
   3   0 -17       9      69
   3   0  17      14      94
  -3   0 -17       2     107
  -4   0 -17       9     118
   4   0  17      12     103
   4   0 -17      15      68
   5   0  17      57     115
  -5   0 -17       1     134
   5   0 -17       4      78
   0  -1 -17   14851    1529
   0  -1  17   13917    1539
   0   1  17   13895    1539
   0   1 -17   13563    1532
  -1  -1 -17     164      94
   1  -1  17     307     101
   1   1 -17     311      84
  -1   1  17     168      91
   1   1  17     285     100
  -1  -1  17     282      89
   1  -1 -17     185      79
  -1   1 -17     185      95
   2   1 -17     421      91
  -2   1  17     498      98
   2  -1  17     618     115
  -2  -1 -17     523     116
  -2   1 -17     400     113
   2  -1 -17     522      93
   2   1  17     511     107
  -2  -1  17     479      92
   3   1 -17    2157     153
  -3  -1 -17    2454     213
  -3   1  17    2351     169
   3  -1  17    2267     195
  -3   1 -17    2368     210
   3   1  17    2269     195
   3  -1 -17    2258     151
  -4  -1 -17   26593     794
   4   1 -17   24700     754
   4  -1  17   25317     780
   4   1  17   25404     780
  -4   1 -17   27202     797
   4  -1 -17   26296     748
   5   1 -17     323     100
   5  -1  17     349     121
  -5  -1 -17     192     145
  -5   1 -17     170     144
   5  -1 -17     358      96
   5   1  17     319     130
   0   2 -17       8     159
   0  -2  17       4     163
   0   2  17      20     175
   0  -2 -17       9     149
   1  -2  17     423     101
  -1  -2 -17     289      97
  -1   2  17     376     101
   1   2 -17     400      88
  -1  -2  17     468      95
  -1   2 -17     470     104
   1   2  17     361     100
   1  -2 -17     499      87
   2  -2  17   10330     381
  -2   2  17   10378     371
   2   2 -17    9687     366
  -2  -2 -17   10719     384
  -2   2 -17   10482     385
   2  -2 -17   10146     352
   2   2  17   10549     389
   3   2 -17    2386     171
  -3   2  17    2561     183
  -3  -2 -17    2294     219
   3  -2  17    2425     208
   3   2  17    2348     201
  -3   2 -17    2234     217
   3  -2 -17    2383     161
   4  -2  17    4756     269
   4   2 -17    4940     236
  -4  -2 -17    4537     290
   4   2  17    4555     271
  -4   2 -17    4663     285
   5   2 -17     338     103
  -5  -2 -17      97     143
   5  -2  17     119     117
   5   2  17     248     123
  -5   2 -17      36     149
   0  -3 -17    7677     227
   0   3 -17    7599     236
   0  -3  17    7592     239
   0   3  17    7695     254
  -1   3  17    1381     167
   1  -3  17    1538     166
  -1  -3 -17    1378     150
   1   3 -17    1190     138
  -1  -3  17    1351     149
   1   3  17    1299     171
  -1   3 -17    1299     153
   1  -3 -17    1229     125
  -2   3  17   13703     474
  -2  -3 -17   14148     481
   2   3 -17   13563     469
   2  -3  17   13665     482
   2   3  17   13604     487
   2  -3 -17   13117     471
  -2   3 -17   14424     491
   3  -3  17   10748     399
  -3  -3 -17   10593     402
   3   3 -17   10834     382
  -3   3  17   10854     383
   3   3  17   10368     399
  -3   3 -17   11147     414
  -4   3  17    6171     275
  -4  -3 -17    6206     318
   4   3 -17    6178     270
   4  -3  17    6059     301
   4   3  17    6383     304
  -4   3 -17    6135     323
  -5  -3 -17     285     150
   5  -3  17     391     135
   5   3 -17     534     113
  -5   3 -17     291     168
   5   3  17     530     137
   0   4 -17     161     204
   0  -4  17     187     204
   0   4  17     172     224
  -1   4  17    6189     288
   1  -4  17    6019     279
   1   4 -17    6165     269
  -1  -4 -17    6081     264
  -1   4 -17    6112     286
   1   4  17    6409     297
  -2  -4 -17    1269     186
  -2   4  17    1760     187
   2   4 -17    1603     163
   2  -4  17    1500     192
   2   4  17    1502     205
  -2   4 -17    1492     199
   3  -4  17      77     101
  -3   4  17     148      92
  -3  -4 -17       3     113
   3   4 -17     281      97
  -3   4 -17       8     118
   3   4  17     151     106
   4   4 -17     887     144
   4  -4  17     593     135
  -4  -4 -17     464     145
  -4   4  17     813     161
   4   4  17     684     135
  -4   4 -17     350     149
  -5  -4 -17    5041     322
   5   4  17    5071     292
   0  -5  17   23083     433
   0   5  17   23051     449
   0   5 -17   23238     440
   1   5 -17    2662     176
  -1   5  17    2490     199
   1  -5  17    2356     189
   1   5  17    2460     206
  -1   5 -17    2441     199
   2   5 -17   19516     580
  -2   5  17   19801     589
   2  -5  17   18847     587
   2   5  17   19444     594
  -2   5 -17   19455     593
  -3   5  17     580     111
   3  -5  17     627     125
   3   5 -17     469     103
  -3  -5 -17     375     127
   3   5  17     473     117
  -3   5 -17     329     135
   4  -5  17    3241     249
   4   5 -17    3261     203
  -4  -5 -17    2951     255
  -4   5  17    3810     220
  -4   5 -17    2998     269
   4   5  17    3411     236
  -5  -5 -17     944     172
   5   5  17    1511     218
   0   6  17    1874     115
   0   6 -17    2020     118
   1   6 -17      29      91
   1  -6  17     136      97
  -1   6  17     136     106
  -1   6 -17      19     104
   1   6  17      89     110
   2  -6  17     176     101
   2   6 -17      23      81
  -2   6  17     100      99
  -2   6 -17      43     108
   2   6  17      42     108
   3  -6  17       1     107
  -3   6  17       8      97
   3   6 -17       2      82
   3   6  17       1     103
  -3   6 -17       1     120
   4  -6  17       1     120
   4   6 -17      41      89
   4   6  17       5     109
  -4   6 -17       1     140
   0   7 -17   10390     447
   0   7  17   10142     459
  -1   7  17     599     132
   1   7 -17     602     123
   1   7  17     437     129
  -1   7 -17     532     127
  -2   7  17   33702     957
   2   7 -17   33932     936
   2  -7  17   33568     944
   2   7  17   34241     954
  -2   7 -17   34330     947
   3  -7  17     676     140
  -3   7  17     733     130
   3   7 -17     774     133
  -3   7 -17     612     162
   3   7  17     669     135
   4   7  17      44     116
  -4   7 -17      10     143
   0   8  17    2583     225
   0   8 -17    2047     192
   1   8 -17       2      99
  -1   8  17      66     112
   1   8  17       3     118
  -1   8 -17       3     112
   2   8 -17      16      96
   2  -8  17       4     110
  -2   8  17       3     107
   2   8  17       3     120
  -2   8 -17       4     117
   3   8 -17   10776     421
  -3   8  17   10215     433
   3  -8  17   10906     423
  -3   8 -17   11247     429
   3   8  17   10487     418
   0   9 -17    3115     218
   0   9  17    2857     240
  -1   9  17     564     141
   1   9 -17     635     124
  -1   9 -17     585     136
   1   9  17     584     142
   2   9 -17    2091     222
  -2   9 -17    1943     239
   2   9  17    2279     255
   3  -9  17    1474     230
   3   9  17    1406     220
  -3   9 -17    1021     185
   0  10 -17    3753     267
   1  10 -17    1866     206
  -1  10 -17    1495     218
  -2  10 -17       2     126
   0   0  18   13199     189
   0   0 -18   13769     167
   1   0 -18       4      67
  -1   0  18       4      84
  -1   0 -18       4      81
   1   0  18       4      89
  -2   0 -18       3      98
   2   0  18       5      98
   2   0 -18      43      75
  -2   0  18      70      87
   3   0  18    1801     202
  -3   0 -18    1686     217
   3   0 -18    1827     158
  -4   0 -18   34205     958
   4   0  18   32287     944
   4   0 -18   32819     915
   5   0 -18     307     101
   0  -1 -18    1590     160
   0   1 -18    1411     166
   0   1  18    1747     181
   0  -1  18    1496     178
  -1   1  18      24      88
  -1  -1 -18       2      84
   1  -1  18       1      87
   1   1 -18       1      69
  -1  -1  18       1      80
   1   1  18       2      91
  -1   1 -18       1      85
   1  -1 -18       1      68
  -2  -1 -18     645     124
   2   1 -18    1138     106
   2  -1  18     872     121
  -2   1  18     805     155
  -2   1 -18     910     126
  -2  -1  18     996     109
   2  -1 -18     639     101
   2   1  18     694     120
  -3  -1 -18     901     144
   3  -1  18     810     127
   3   1 -18     769     104
  -3   1  18     728     118
  -3   1 -18     811     141
   3  -1 -18     680     124
   3   1  18     844     127
   4  -1  18    2500     219
   4   1 -18    2058     165
  -4  -1 -18    1625     232
  -4   1 -18    2043     238
   4  -1 -18    2039     160
   4   1  18    2138     214
   5   1 -18      74      88
   0   2  18    2791      98
   0  -2  18    3021      93
   0  -2 -18    3036      87
   0   2 -18    3126      91
  -1   2  18    1766     184
   1  -2  18    1647     180
   1   2 -18    1601     155
  -1  -2 -18    1524     170
   1  -2 -18    1657     147
   1   2  18    1685     192
  -1  -2  18    1802     173
  -1   2 -18    1618     169
   2   2 -18    1996     165
   2  -2  18    2401     202
  -2  -2 -18    2093     197
  -2   2  18    2452     190
  -2   2 -18    2405     204
   2  -2 -18    2506     161
   2   2  18    2347     202
   3  -2  18    2237     213
  -3   2  18    2617     189
   3   2 -18    2352     171
  -3  -2 -18    2109     219
   3   2  18    2256     204
   3  -2 -18    2413     162
  -3   2 -18    1985     216
   4  -2  18   13570     479
  -4  -2 -18   14387     497
   4   2 -18   13899     453
   4   2  18   14069     481
  -4   2 -18   13622     495
   0   3 -18    4503     275
   0  -3 -18    4086     268
   0  -3  18    4537     278
   0   3  18    4072     291
   1  -3  18    4662     244
  -1  -3 -18    4807     236
   1   3 -18    4940     235
  -1   3  18    5038     255
   1   3  18    4950     260
  -1   3 -18    4970     245
   1  -3 -18    5102     219
   2   3 -18   12207     422
   2  -3  18   12527     439
  -2   3  18   12536     433
  -2  -3 -18   12715     438
  -2   3 -18   12660     445
   2   3  18   12111     443
  -3   3  18    6316     279
  -3  -3 -18    5840     301
   3   3 -18    6354     272
   3  -3  18    5716     295
   3   3  18    5883     297
  -3   3 -18    5958     312
   4   3 -18    4593     233
  -4  -3 -18    4286     289
   4  -3  18    4431     268
  -4   3 -18    4372     289
   4   3  18    4506     270
   0  -4  18   24648     997
   0   4 -18   24771    1005
   0   4  18   24492    1013
  -1  -4 -18       0      85
   1  -4  18      62      98
   1   4 -18      37      80
  -1   4  18      18      96
   1   4  18      19     100
  -1   4 -18       3      94
   2   4 -18   21622     660
  -2  -4 -18   22623     663
   2  -4  18   21328     666
  -2   4  18   21508     663
   2   4  18   21582     674
  -2   4 -18   21975     671
  -3   4  18   15755     527
   3   4 -18   16080     523
  -3  -4 -18   16242     535
   3  -4  18   15876     537
  -3   4 -18   15950     547
   3   4  18   15591     536
   4   4 -18    2343     187
  -4  -4 -18    2104     246
  -4   4  18    2334     206
   4  -4  18    2349     233
  -4   4 -18    2059     248
   4   4  18    2610     228
   0   5 -18     257     104
   0   5  18     231     109
   1   5 -18     937     143
   1  -5  18     877     126
  -1   5  18    1034     135
  -1   5 -18     995     140
   1   5  18    1004     135
  -2   5  18    1817     194
   2   5 -18    1727     165
   2  -5  18    1912     195
  -2   5 -18    1499     198
   2   5  18    1568     210
  -3   5  18      28     101
   3  -5  18       6     110
   3   5 -18      32      86
   3   5  18       0     110
  -3   5 -18       2     122
  -4  -5 -18     410     150
   4  -5  18     487     149
  -4   5  18     596     119
  -4   5 -18     413     174
   4   5  18     824     132
   0   6  18   16224     563
   0   6 -18   16763     552
  -1   6  18    2119     207
   1   6 -18    1885     186
   1  -6  18    1758     197
   1   6  18    2023     215
  -1   6 -18    1570     197
  -2   6  18   38582    1136
   2   6 -18   37924    1124
   2  -6  18   37691    1130
   2   6  18   37587    1137
  -2   6 -18   39252    1137
   3  -6  18       3     114
  -3   6  18      32     105
   3   6 -18       9      89
   3   6  18       7     112
  -3   6 -18       3     128
  -4   6  18      63     121
   4   6  18       1     120
   0   7  18    2008     210
   0   7 -18    1992     195
   1   7 -18      69     103
  -1   7  18      49     109
   1   7  18      41     118
  -1   7 -18      53     113
   2  -7  18     709     139
   2   7 -18     828     161
  -2   7  18     845     149
  -2   7 -18     691     156
   2   7  18     719     146
  -3   7  18   16727     576
   3  -7  18   16995     577
  -3   7 -18   17233     581
   3   7  18   15972     566
   0   8 -18    2235     201
   0   8  18    2457     229
   1   8 -18     467     115
  -1   8  18     516     132
  -1   8 -18     492     132
   1   8  18     360     134
   2  -8  18    2932     267
   2   8 -18    2758     218
  -2   8 -18    2727     245
   2   8  18    3035     260
   0   9 -18     678     144
  -1   9 -18     692     142
   0   0  19      81      99
   0   0 -19      25      91
  -1   0  19       1      88
   1   0  19      45      97
   1   0 -19       1      72
  -1   0 -19       4      90
   2   0  19      73     105
  -2   0 -19       2     104
   2   0 -19       7      76
  -2   0  19      28      90
  -3   0 -19       1     112
   3   0 -19       0      67
   3   0  19       1     101
   4   0  19      20     114
   4   0 -19      12      74
   0   1 -19    3676     683
   0   1  19    3874     690
   0  -1  19    3420     684
   0  -1 -19    4244     681
  -1  -1 -19    1084     172
   1   1 -19    1309     151
  -1   1  19    1187     178
   1  -1  19    1240     180
  -1   1 -19    1197     173
  -1  -1  19    1369     172
   1  -1 -19    1322     148
   1   1  19    1308     195
   2   1 -19     236      83
  -2  -1 -19      31     102
   2  -1  19     107     105
  -2   1  19     239      94
   2   1  19     182     108
  -2   1 -19     133     111
   2  -1 -19     167      78
   3  -1  19    3281     238
  -3  -1 -19    3256     246
   3   1 -19    3305     194
   3   1  19    3249     236
  -3   1 -19    3200     254
   3  -1 -19    3188     191
   4   1 -19   21850     678
   4  -1  19   21426     710
  -4  -1 -19   22584     722
   4  -1 -19   22648     673
   4   1  19   21760     706
  -4   1 -19   22825     724
   0  -2  19    1669     107
   0   2  19    1533     117
   0   2 -19    1660     104
   0  -2 -19    1663     100
   1  -2  19    2307     201
   1   2 -19    2456     174
  -1  -2 -19    2308     186
  -1   2  19    2499     200
   1   2  19    2475     208
   1  -2 -19    2372     164
  -1   2 -19    2327     193
  -1  -2  19    2391     187
  -2  -2 -19    4155     259
   2  -2  19    4155     263
  -2   2  19    4167     257
   2   2 -19    4102     232
   2  -2 -19    3988     224
   2   2  19    4020     266
  -2   2 -19    4175     267
   3   2 -19    5207     262
   3  -2  19    5158     297
  -3   2  19    5170     275
  -3  -2 -19    5351     303
   3   2  19    5468     295
  -3   2 -19    5387     313
   4   2 -19    3460     211
   4  -2  19    3400     262
  -4  -2 -19    2896     274
  -4   2 -19    3027     277
   4   2  19    3385     256
   0   3 -19   16371     468
   0  -3 -19   16705     455
   0   3  19   16367     480
   0  -3  19   16071     464
  -1   3  19       3      97
   1   3 -19       6      82
   1  -3  19       9      97
  -1   3 -19       2      93
   1   3  19      11     106
   2  -3  19    9586     384
  -2   3  19    9557     377
   2   3 -19    9768     368
  -2  -3 -19    9679     378
  -2   3 -19    9828     387
   2   3  19    9570     391
  -3   3  19      17      95
   3  -3  19       1     111
   3   3 -19      27      86
   3   3  19       9     109
  -3   3 -19       1     113
  -4  -3 -19    5874     332
   4   3 -19    6227     285
   4   3  19    5969     342
   0  -4  19     509     102
   0   4  19     631     113
   0   4 -19     748      94
  -1   4  19    1633     202
   1  -4  19    1640     192
   1   4 -19    1505     166
   1   4  19    1626     206
  -1   4 -19    1405     183
  -2  -4 -19   10693     394
   2   4 -19   10605     384
  -2   4  19   10671     402
   2  -4  19   10341     400
   2   4  19   10800     410
  -2   4 -19   10666     407
  -3  -4 -19    2076     230
   3   4 -19    2300     196
  -3   4  19    2643     212
   3  -4  19    2562     233
   3   4  19    2343     229
  -3   4 -19    2179     245
  -4   4  19    4959     265
  -4  -4 -19    4184     295
   0   5  19   19339     478
   0   5 -19   19037     470
   1  -5  19       3     103
  -1   5  19      47     108
   1   5 -19       2      85
   1   5  19       0     109
  -1   5 -19       3      99
   2   5 -19   37489    1046
  -2   5  19   37019    1054
   2  -5  19   37831    1054
  -2   5 -19   39061    1060
   2   5  19   38132    1065
   3  -5  19   23006     722
  -3   5  19   23288     711
   3   5 -19   23206     711
  -3   5 -19   23543     732
   3   5  19   22606     721
  -4   5  19      72     112
   0   6  19     994     211
   0   6 -19     776     175
   1   6 -19     630     127
  -1   6  19     479     134
   1   6  19     445     138
  -1   6 -19     489     136
   2  -6  19    8092     362
  -2   6  19    8780     368
   2   6 -19    7896     344
   2   6  19    8303     374
  -2   6 -19    8086     370
   3  -6  19   13867     518
  -3   6  19   13714     524
   0   7 -19    5541     321
   0   7  19    5902     339
   1   7 -19    2482     216
  -1   7  19    2431     241
  -1   7 -19    2244     221
   1   7  19    2433     246
   2  -7  19    6005     305
  -2   7 -19    5696     320
   0   0 -20     931      93
   0   0  20     907     100
  -1   0  20    5869     277
   1   0 -20    5941     259
   1   0  20    5842     288
  -1   0 -20    5663     279
  -2   0  20     158     105
  -2   0 -20      13      99
   2   0 -20      59      77
   2   0  20     112     110
   3   0 -20    5281     253
   3   0  20    5185     291
  -3   0 -20    5367     306
   4   0 -20   18954     598
   0  -1  20    7148     520
   0  -1 -20    9034     518
   0   1  20    8430     526
   0   1 -20    7210     517
  -1  -1 -20    1450     184
   1   1 -20    1557     167
  -1   1  20    1554     198
   1  -1  20    1739     200
  -1  -1  20    1573     188
   1  -1 -20    1498     161
   1   1  20    1553     201
  -1   1 -20    1362     180
   2   1 -20    1302     151
  -2   1  20    1639     181
   2  -1  20    1392     146
  -2  -1 -20    1242     144
   2  -1 -20    1449     144
   2   1  20    1238     143
  -2   1 -20    1338     146
  -3  -1 -20    1518     180
   3  -1  20    2026     216
   3   1 -20    1754     160
  -3   1 -20    1649     224
   3  -1 -20    1831     160
   3   1  20    1720     212
   4   1 -20     206      93
   0   2 -20   13306     510
   0  -2  20   13149     507
   0  -2 -20   12835     499
   0   2  20   12576     517
   1   2 -20      11      81
  -1  -2 -20       5      90
   1  -2  20      93     104
  -1   2  20       2      97
  -1  -2  20      11     101
   1  -2 -20       2      75
   1   2  20      31     105
  -1   2 -20       4      94
   2   2 -20    2982     190
   2  -2  20    2908     230
  -2  -2 -20    2891     223
  -2   2  20    3024     219
   2  -2 -20    2672     183
   2   2  20    2855     227
  -2   2 -20    2854     233
  -3  -2 -20     357     139
   3   2 -20     687     108
   3  -2  20     507     132
  -3   2 -20     476     146
   3   2  20     527     130
   0   3 -20     305     281
   0  -3 -20     177     284
   0   3  20     213     301
   0  -3  20     342     287
  -1  -3 -20    1013     180
   1  -3  20    1268     199
  -1   3  20    1178     202
   1   3 -20    1184     170
   1   3  20    1162     210
  -1   3 -20    1078     192
   2  -3  20    6778     318
  -2   3  20    7197     312
  -2  -3 -20    6749     310
   2   3 -20    6639     295
  -2   3 -20    6870     321
   2   3  20    6977     329
   3   3 -20    4105     226
  -3   3  20    4458     244
  -3  -3 -20    3967     269
   3  -3  20    3984     261
   3   3  20    4067     269
  -3   3 -20    3927     293
   0   4 -20   19428     847
   0   4  20   19301     859
   1  -4  20       1     106
  -1   4  20       0     103
   1   4 -20       0      83
  -1   4 -20       1      98
   1   4  20       0     111
  -2   4  20   27740     824
   2   4 -20   27741     818
   2  -4  20   27101     824
  -2   4 -20   28132     831
   2   4  20   27262     835
  -3   4  20    4514     269
  -3  -4 -20    4211     286
   0   5 -20      14     103
   0   5  20      30     121
   1  -5  20    1252     150
   1   5 -20    1332     176
  -1   5  20    1350     211
   1   5  20    1454     215
  -1   5 -20    1175     192
   2  -5  20     429     133
   2   5 -20     557     129
  -2   5  20     564     133
  -2   5 -20     505     150
   2   5  20     584     145
   0   6 -20    7722     342
   0   6  20    7534     362
  -1   6  20     281     131
  -1   6 -20     144     121
   2  -6  20    6352     337
   2  -7  20    4948     316
   0   0 -21      14      94
   0   0  21      50     107
   1   0  21      17     108
   1   0 -21       2      83
  -1   0 -21      10     100
  -1   0  21       3      95
   2   0 -21      28      87
   2   0  21       6     118
  -2   0 -21       4     106
   3   0 -21       0      80
   0   1 -21    7873     248
   0   1  21    8230     267
   0  -1  21    7885     263
   0  -1 -21    7993     246
  -1  -1 -21    1224     188
   1   1 -21    1457     167
  -1   1  21    1443     198
   1  -1  21    1604     204
   1   1  21    1559     210
  -1  -1  21    1421     194
  -1   1 -21    1275     186
   1  -1 -21    1443     163
  -2   1  21    1406     196
   2  -1  21    1464     212
   2   1 -21    1263     164
  -2  -1 -21    1170     203
   2   1  21    1120     205
  -2   1 -21    1170     201
   2  -1 -21    1380     159
   3   1 -21    1963     178
   3  -1 -21    1861     176
   0   2 -21    3139     111
   0  -2  21    3254     121
   0   2  21    3447     128
   0  -2 -21    3286     112
  -1   2  21     956     132
  -1  -2 -21     739     131
   1   2 -21     977     129
   1  -2  21     831     133
   1  -2 -21     845     112
   1   2  21     760     142
  -1   2 -21     889     140
  -2  -2 -21    4235     267
   2  -2  21    4214     276
  -2   2  21    4023     266
   2   2 -21    3968     237
  -2   2 -21    3899     268
   2   2  21    4221     273
  -3  -2 -21    1808     241
   0  -3  21   13083     302
   0   3  21   13121     324
   0   3 -21   12927     291
   1   3 -21       2      87
   1  -3  21       7     108
  -1   3  21       4     109
  -1   3 -21       7     106
   1   3  21       2     115
   2   3 -21   14116     513
  -2   3  21   14271     510
   2  -3  21   14102     516
  -2  -3 -21   14741     508
  -3  -3 -21    1943     239
  -3   3  21    2312     225
   0   4  21     457     236
   0   4 -21     304     193
   1  -4  21    1540     211
   1   4 -21    1601     194
  -1   4  21    1466     217
  -1   4 -21    1558     215
  -2   4  21     140     118
   2  -4  21      94     122
   1  -5  21     234     133
   0   0 -22   11667     576
   0   0  22   11740     590
  -1   0 -22      22     111
  -1   0  22     141     106
   1   0  22      86     117
   1   0 -22       8      88
   2   0 -22    2490     191
   0   1  22     555     118
   0  -1  22     597     122
   0  -1 -22     523     104
   0   1 -22     489     106
   1   1 -22     156     100
  -1   1  22     180     117
  -1  -1 -22      20     110
   1  -1  22     128     121
   1  -1 -22      99      94
  -1   1 -22      40     121
   2  -1 -22    1188     152
   0   2  22   11953     647
   0  -2  22   11802     634
   0  -2 -22   12239     620
   1  -2  22    1691     220
  -1   2  22    1645     222
  -1  -2 -22    1548     205
  -2  -2 -22    8142     362
  -2   2  22    8185     359
   1  -3  22    1344     218
  -2  -3 -22      15     113
   1  -4  22     530     143
;
_shelx_hkl_checksum              94983

_shelx_fab_file                  
;
    2    0    0      3.99      0.00
    4    0    0      0.48      0.00
    6    0    0      5.16      0.00
    8    0    0      3.43      0.00
   10    0    0     -0.68      0.00
   12    0    0      0.19      0.00
   14    0    0      0.80      0.00
   16    0    0      0.41      0.00
   18    0    0     -0.09      0.00
   20    0    0     -0.20      0.00
    0    2    0     -0.94      0.00
    2    2    0     -0.30      0.00
    4    2    0     -0.02      0.00
    6    2    0     -0.07      0.00
    8    2    0     -0.12      0.00
   10    2    0      0.19      0.00
   12    2    0      0.32      0.00
   14    2    0      0.31      0.00
   16    2    0      0.15      0.00
   18    2    0      0.14      0.00
   20    2    0      0.00      0.00
    0    4    0     -0.09      0.00
    2    4    0     -0.02      0.00
    4    4    0     -0.01      0.00
    6    4    0     -0.07      0.00
    8    4    0     -0.31      0.00
   10    4    0     -0.02      0.00
   12    4    0     -0.13      0.00
   14    4    0     -0.46      0.00
   16    4    0     -0.13      0.00
    0    6    0     -0.20      0.00
    2    6    0     -0.16      0.00
    4    6    0     -0.07      0.00
    6    6    0     -0.04      0.00
    8    6    0      0.03      0.00
   10    6    0      0.01      0.00
   12    6    0     -0.07      0.00
    1    0    1     -5.69      0.00
    3    0    1      0.59      0.00
    5    0    1     -1.97      0.00
    9    0    1     -0.41      0.00
   11    0    1      0.28      0.00
   13    0    1     -0.78      0.00
   15    0    1     -0.51      0.00
   17    0    1     -0.01      0.00
   19    0    1      0.16      0.00
    0    1    1      0.58      0.00
    2    1    1     -0.01      0.00
    4    1    1     -0.32      0.00
    6    1    1      0.04      0.00
    8    1    1      0.17      0.00
   10    1    1     -0.08      0.00
   12    1    1     -0.11      0.00
   14    1    1      0.02      0.00
   16    1    1      0.04      0.00
   18    1    1      0.02      0.00
   20    1    1     -0.15      0.00
    1    2    1      0.35      0.00
    3    2    1      0.24      0.00
    5    2    1      0.17      0.00
    7    2    1      0.06      0.00
    9    2    1      0.00      0.00
   11    2    1     -0.08      0.00
   13    2    1     -0.11      0.00
   15    2    1     -0.11      0.00
   17    2    1     -0.15      0.00
   19    2    1     -0.01      0.00
    0    3    1     -0.10      0.00
    2    3    1     -0.02      0.00
    4    3    1      0.13      0.00
    6    3    1      0.06      0.00
    8    3    1      0.02      0.00
   10    3    1     -0.02      0.00
   12    3    1      0.03      0.00
   14    3    1      0.11      0.00
   16    3    1      0.04      0.00
   18    3    1      0.12      0.00
    1    4    1     -0.05      0.00
    3    4    1     -0.03      0.00
    5    4    1      0.00      0.00
    7    4    1      0.15      0.00
    9    4    1      0.06      0.00
   11    4    1     -0.02      0.00
   13    4    1      0.22      0.00
   15    4    1      0.17      0.00
   17    4    1     -0.06      0.00
    0    5    1     -0.24      0.00
    2    5    1      0.11      0.00
    4    5    1      0.19      0.00
    6    5    1     -0.01      0.00
    8    5    1      0.02      0.00
   10    5    1      0.12      0.00
   12    5    1      0.09      0.00
   14    5    1     -0.05      0.00
   16    5    1     -0.03      0.00
    1    6    1      0.09      0.00
    3    6    1     -0.03      0.00
    5    6    1     -0.07      0.00
    7    6    1      0.01      0.00
    9    6    1     -0.01      0.00
   11    6    1     -0.04      0.00
   13    6    1     -0.06      0.00
    0    7    1     -0.33      0.00
    2    7    1      0.01      0.00
    4    7    1      0.07      0.00
    6    7    1     -0.06      0.00
    8    7    1      0.26      0.00
    0    0    2      0.63      0.00
    2    0    2     -1.67      0.00
    4    0    2     -1.42      0.00
    6    0    2      1.36      0.00
    8    0    2      0.58      0.00
   10    0    2     -0.50      0.00
   12    0    2      0.80      0.00
   14    0    2      0.47      0.00
   16    0    2      0.00      0.00
   18    0    2     -0.06      0.00
   20    0    2     -0.01      0.00
    1    1    2      0.19      0.00
    3    1    2      0.24      0.00
    5    1    2      0.14      0.00
    7    1    2      0.04      0.00
    9    1    2     -0.04      0.00
   11    1    2     -0.02      0.00
   13    1    2     -0.02      0.00
   15    1    2     -0.02      0.00
   17    1    2     -0.05      0.00
   19    1    2      0.08      0.00
    0    2    2      0.39      0.00
    2    2    2     -0.10      0.00
    4    2    2     -0.54      0.00
    6    2    2     -0.05      0.00
    8    2    2      0.00      0.00
   10    2    2     -0.08      0.00
   12    2    2     -0.35      0.00
   14    2    2     -0.23      0.00
   16    2    2      0.04      0.00
   18    2    2      0.04      0.00
    1    3    2     -0.01      0.00
    3    3    2      0.06      0.00
    5    3    2     -0.05      0.00
    7    3    2     -0.02      0.00
    9    3    2      0.08      0.00
   11    3    2      0.07      0.00
   13    3    2     -0.06      0.00
   15    3    2     -0.02      0.00
   17    3    2     -0.02      0.00
    0    4    2      0.13      0.00
    2    4    2      0.08      0.00
    4    4    2     -0.03      0.00
    6    4    2     -0.06      0.00
    8    4    2      0.06      0.00
   10    4    2      0.07      0.00
   12    4    2     -0.03      0.00
   14    4    2      0.07      0.00
   16    4    2      0.12      0.00
    1    5    2      0.24      0.00
    3    5    2     -0.23      0.00
    5    5    2      0.07      0.00
    7    5    2      0.03      0.00
    9    5    2     -0.23      0.00
   11    5    2     -0.11      0.00
   13    5    2     -0.03      0.00
   15    5    2     -0.11      0.00
    0    6    2      0.00      0.00
    2    6    2      0.11      0.00
    4    6    2      0.18      0.00
    6    6    2      0.11      0.00
    8    6    2     -0.06      0.00
   10    6    2      0.04      0.00
   12    6    2      0.20      0.00
    1    7    2     -0.14      0.00
    3    7    2     -0.58      0.00
    5    7    2     -0.15      0.00
    7    7    2     -0.02      0.00
    9    7    2     -0.37      0.00
    1    0    3      2.65      0.00
    3    0    3      2.37      0.00
    5    0    3      0.92      0.00
    7    0    3      0.42      0.00
    9    0    3      0.91      0.00
   11    0    3     -0.24      0.00
   13    0    3     -0.52      0.00
   15    0    3      0.06      0.00
   17    0    3     -0.04      0.00
   19    0    3     -0.27      0.00
    2    1    3     -0.34      0.00
    4    1    3      0.23      0.00
    6    1    3     -0.33      0.00
    8    1    3     -0.19      0.00
   10    1    3      0.20      0.00
   12    1    3      0.15      0.00
   14    1    3     -0.07      0.00
   16    1    3     -0.03      0.00
   18    1    3      0.08      0.00
   20    1    3     -0.18      0.00
    1    2    3     -0.38      0.00
    3    2    3      0.25      0.00
    5    2    3      0.15      0.00
    7    2    3      0.03      0.00
    9    2    3     -0.01      0.00
   11    2    3      0.23      0.00
   13    2    3      0.56      0.00
   15    2    3      0.21      0.00
   17    2    3     -0.06      0.00
   19    2    3      0.21      0.00
    0    3    3      0.40      0.00
    2    3    3      0.05      0.00
    4    3    3     -0.08      0.00
    6    3    3      0.03      0.00
    8    3    3     -0.06      0.00
   10    3    3     -0.14      0.00
   12    3    3     -0.03      0.00
   14    3    3     -0.02      0.00
   16    3    3     -0.13      0.00
   18    3    3      0.06      0.00
    1    4    3      0.06      0.00
    3    4    3      0.11      0.00
    5    4    3      0.10      0.00
    7    4    3      0.00      0.00
    9    4    3     -0.08      0.00
   11    4    3      0.10      0.00
   13    4    3     -0.13      0.00
   15    4    3     -0.10      0.00
   17    4    3      0.08      0.00
    0    5    3     -0.50      0.00
    2    5    3     -0.03      0.00
    4    5    3     -0.01      0.00
    6    5    3     -0.32      0.00
    8    5    3      0.16      0.00
   10    5    3      0.14      0.00
   12    5    3     -0.06      0.00
   14    5    3      0.19      0.00
    1    6    3     -0.06      0.00
    3    6    3      0.04      0.00
    5    6    3      0.03      0.00
    7    6    3     -0.06      0.00
    9    6    3      0.00      0.00
   11    6    3     -0.06      0.00
    0    7    3      0.36      0.00
    2    7    3      0.79      0.00
    4    7    3      0.54      0.00
    6    7    3      0.05      0.00
    8    7    3      0.01      0.00
    0    0    4     -1.35      0.00
    2    0    4     -1.18      0.00
    4    0    4     -0.88      0.00
    6    0    4     -0.83      0.00
    8    0    4     -0.92      0.00
   10    0    4     -0.48      0.00
   12    0    4      0.25      0.00
   14    0    4     -0.10      0.00
   16    0    4      0.02      0.00
   18    0    4      0.27      0.00
    1    1    4      0.58      0.00
    3    1    4     -0.46      0.00
    5    1    4      0.07      0.00
    7    1    4      0.35      0.00
    9    1    4     -0.05      0.00
   11    1    4     -0.15      0.00
   13    1    4      0.15      0.00
   15    1    4      0.15      0.00
   17    1    4     -0.04      0.00
   19    1    4     -0.04      0.00
    0    2    4      0.03      0.00
    2    2    4      0.16      0.00
    4    2    4      0.18      0.00
    6    2    4     -0.08      0.00
    8    2    4     -0.14      0.00
   10    2    4      0.19      0.00
   12    2    4     -0.27      0.00
   14    2    4     -0.35      0.00
   16    2    4      0.01      0.00
   18    2    4      0.00      0.00
    1    3    4     -0.34      0.00
    3    3    4     -0.11      0.00
    5    3    4     -0.02      0.00
    7    3    4      0.01      0.00
    9    3    4      0.04      0.00
   11    3    4     -0.01      0.00
   13    3    4      0.02      0.00
   15    3    4      0.03      0.00
   17    3    4      0.13      0.00
    0    4    4     -0.15      0.00
    2    4    4     -0.18      0.00
    4    4    4     -0.03      0.00
    6    4    4     -0.01      0.00
    8    4    4      0.05      0.00
   10    4    4     -0.10      0.00
   12    4    4      0.00      0.00
   14    4    4      0.06      0.00
   16    4    4     -0.18      0.00
    1    5    4      0.32      0.00
    3    5    4     -0.17      0.00
    5    5    4      0.18      0.00
    7    5    4      0.24      0.00
    9    5    4     -0.11      0.00
   11    5    4      0.13      0.00
   13    5    4     -0.05      0.00
   15    5    4     -0.19      0.00
    0    6    4      0.11      0.00
    2    6    4     -0.07      0.00
    4    6    4     -0.34      0.00
    6    6    4     -0.04      0.00
    8    6    4      0.12      0.00
   10    6    4     -0.06      0.00
   12    6    4     -0.15      0.00
    1    7    4     -0.30      0.00
    3    7    4     -0.26      0.00
    5    7    4      0.06      0.00
    7    7    4     -0.03      0.00
    1    0    5     -0.18      0.00
    3    0    5     -0.12      0.00
    5    0    5      0.30      0.00
    7    0    5      0.54      0.00
    9    0    5      0.34      0.00
   11    0    5     -0.03      0.00
   13    0    5      0.11      0.00
   15    0    5      0.14      0.00
   17    0    5     -0.06      0.00
   19    0    5     -0.08      0.00
    0    1    5      0.06      0.00
    2    1    5      0.35      0.00
    4    1    5      0.12      0.00
    6    1    5     -0.20      0.00
    8    1    5      0.01      0.00
   10    1    5     -0.03      0.00
   12    1    5     -0.21      0.00
   14    1    5     -0.22      0.00
   16    1    5     -0.05      0.00
   18    1    5      0.01      0.00
    1    2    5      0.13      0.00
    3    2    5     -0.40      0.00
    5    2    5     -0.10      0.00
    7    2    5      0.28      0.00
    9    2    5     -0.12      0.00
   11    2    5     -0.19      0.00
   13    2    5      0.10      0.00
   15    2    5      0.00      0.00
   17    2    5     -0.15      0.00
    0    3    5     -0.32      0.00
    2    3    5      0.06      0.00
    4    3    5      0.15      0.00
    6    3    5     -0.19      0.00
    8    3    5     -0.06      0.00
   10    3    5      0.10      0.00
   12    3    5      0.02      0.00
   14    3    5      0.08      0.00
   16    3    5     -0.02      0.00
    1    4    5      0.01      0.00
    3    4    5     -0.06      0.00
    5    4    5     -0.10      0.00
    7    4    5     -0.12      0.00
    9    4    5     -0.05      0.00
   11    4    5      0.02      0.00
   13    4    5      0.01      0.00
   15    4    5      0.05      0.00
    0    5    5     -0.23      0.00
    2    5    5      0.07      0.00
    4    5    5      0.30      0.00
    6    5    5     -0.21      0.00
    8    5    5     -0.09      0.00
   10    5    5     -0.04      0.00
   12    5    5     -0.05      0.00
   14    5    5     -0.05      0.00
    1    6    5     -0.13      0.00
    3    6    5      0.15      0.00
    5    6    5      0.13      0.00
    7    6    5     -0.06      0.00
    9    6    5      0.00      0.00
   11    6    5      0.20      0.00
    0    7    5     -0.19      0.00
    2    7    5     -0.25      0.00
    4    7    5     -0.56      0.00
    6    7    5     -0.09      0.00
    0    0    6      0.15      0.00
    2    0    6      0.29      0.00
    4    0    6      0.26      0.00
    6    0    6     -0.15      0.00
    8    0    6     -0.04      0.00
   10    0    6      0.27      0.00
   12    0    6     -0.05      0.00
   14    0    6     -0.28      0.00
   16    0    6     -0.15      0.00
   18    0    6     -0.15      0.00
    1    1    6     -0.29      0.00
    3    1    6     -0.04      0.00
    5    1    6      0.09      0.00
    7    1    6      0.00      0.00
    9    1    6      0.07      0.00
   11    1    6      0.13      0.00
   13    1    6      0.18      0.00
   15    1    6      0.02      0.00
   17    1    6      0.08      0.00
    0    2    6     -0.20      0.00
    2    2    6      0.14      0.00
    4    2    6      0.16      0.00
    6    2    6     -0.14      0.00
    8    2    6     -0.06      0.00
   10    2    6      0.16      0.00
   12    2    6      0.16      0.00
   14    2    6      0.12      0.00
   16    2    6      0.08      0.00
   18    2    6      0.21      0.00
    1    3    6      0.96      0.00
    3    3    6     -0.09      0.00
    5    3    6      0.27      0.00
    7    3    6      0.38      0.00
    9    3    6     -0.01      0.00
   11    3    6      0.01      0.00
   13    3    6     -0.04      0.00
   15    3    6     -0.10      0.00
   17    3    6      0.19      0.00
    0    4    6      0.11      0.00
    2    4    6      0.11      0.00
    4    4    6      0.07      0.00
    6    4    6      0.03      0.00
    8    4    6      0.18      0.00
   10    4    6      0.04      0.00
   12    4    6     -0.04      0.00
   14    4    6      0.00      0.00
    1    5    6     -0.07      0.00
    3    5    6     -0.21      0.00
    5    5    6     -0.11      0.00
    7    5    6      0.06      0.00
    9    5    6     -0.08      0.00
   11    5    6     -0.04      0.00
   13    5    6      0.14      0.00
    0    6    6      0.13      0.00
    2    6    6      0.08      0.00
    4    6    6      0.06      0.00
    6    6    6      0.07      0.00
    8    6    6     -0.06      0.00
   10    6    6     -0.06      0.00
    1    7    6      0.24      0.00
    3    7    6      0.52      0.00
    1    0    7      0.07      0.00
    3    0    7     -0.26      0.00
    5    0    7     -0.19      0.00
    7    0    7      0.04      0.00
    9    0    7     -0.19      0.00
   11    0    7      0.09      0.00
   13    0    7      0.44      0.00
   15    0    7      0.34      0.00
   17    0    7      0.20      0.00
    0    1    7      0.05      0.00
    2    1    7     -0.03      0.00
    4    1    7      0.03      0.00
    6    1    7     -0.01      0.00
    8    1    7     -0.13      0.00
   10    1    7      0.08      0.00
   12    1    7     -0.01      0.00
   14    1    7      0.02      0.00
   16    1    7      0.04      0.00
    1    2    7     -0.01      0.00
    3    2    7     -0.05      0.00
    5    2    7      0.02      0.00
    7    2    7     -0.01      0.00
    9    2    7     -0.04      0.00
   11    2    7     -0.11      0.00
   13    2    7     -0.17      0.00
   15    2    7     -0.01      0.00
   17    2    7     -0.01      0.00
    0    3    7     -1.48      0.00
    2    3    7     -0.37      0.00
    4    3    7      0.05      0.00
    6    3    7     -0.51      0.00
    8    3    7     -0.21      0.00
   10    3    7     -0.07      0.00
   12    3    7     -0.08      0.00
   14    3    7      0.11      0.00
   16    3    7     -0.18      0.00
    1    4    7      0.00      0.00
    3    4    7      0.02      0.00
    5    4    7      0.18      0.00
    7    4    7     -0.04      0.00
    9    4    7     -0.05      0.00
   11    4    7      0.07      0.00
   13    4    7      0.08      0.00
    0    5    7      0.28      0.00
    2    5    7     -0.01      0.00
    4    5    7     -0.05      0.00
    6    5    7      0.00      0.00
    8    5    7      0.17      0.00
   10    5    7      0.08      0.00
   12    5    7     -0.03      0.00
    1    6    7     -0.02      0.00
    3    6    7     -0.02      0.00
    5    6    7     -0.10      0.00
    7    6    7      0.05      0.00
    0    0    8      0.04      0.00
    2    0    8      0.20      0.00
    4    0    8      0.35      0.00
    6    0    8      0.11      0.00
    8    0    8     -0.23      0.00
   10    0    8     -0.37      0.00
   12    0    8     -0.51      0.00
   14    0    8     -0.39      0.00
   16    0    8     -0.24      0.00
    1    1    8     -0.04      0.00
    3    1    8     -0.13      0.00
    5    1    8     -0.18      0.00
    7    1    8      0.08      0.00
    9    1    8     -0.17      0.00
   11    1    8     -0.13      0.00
   13    1    8      0.02      0.00
   15    1    8     -0.10      0.00
    0    2    8      0.07      0.00
    2    2    8      0.02      0.00
    4    2    8      0.01      0.00
    6    2    8      0.04      0.00
    8    2    8      0.06      0.00
   10    2    8      0.04      0.00
   12    2    8      0.01      0.00
   14    2    8     -0.12      0.00
   16    2    8     -0.13      0.00
    1    3    8      0.53      0.00
    3    3    8     -0.41      0.00
    5    3    8      0.10      0.00
    7    3    8      0.33      0.00
    9    3    8      0.03      0.00
   11    3    8      0.12      0.00
   13    3    8     -0.06      0.00
   15    3    8      0.03      0.00
    0    4    8     -0.04      0.00
    2    4    8     -0.01      0.00
    4    4    8     -0.13      0.00
    6    4    8     -0.12      0.00
    8    4    8      0.04      0.00
   10    4    8     -0.09      0.00
   12    4    8     -0.09      0.00
    1    5    8     -0.16      0.00
    3    5    8      0.19      0.00
    5    5    8      0.07      0.00
    7    5    8     -0.11      0.00
    9    5    8      0.04      0.00
   11    5    8     -0.01      0.00
    0    6    8     -0.01      0.00
    2    6    8     -0.04      0.00
    4    6    8     -0.09      0.00
    6    6    8      0.01      0.00
    1    0    9     -0.12      0.00
    3    0    9     -0.41      0.00
    5    0    9     -0.41      0.00
    7    0    9      0.25      0.00
    9    0    9      0.51      0.00
   11    0    9      0.04      0.00
   13    0    9     -0.03      0.00
   15    0    9      0.07      0.00
    0    1    9      0.19      0.00
    2    1    9      0.15      0.00
    4    1    9      0.15      0.00
    6    1    9      0.11      0.00
    8    1    9      0.24      0.00
   10    1    9      0.13      0.00
   12    1    9     -0.06      0.00
   14    1    9      0.11      0.00
    1    2    9     -0.05      0.00
    3    2    9      0.04      0.00
    5    2    9      0.03      0.00
    7    2    9     -0.01      0.00
    9    2    9     -0.05      0.00
   11    2    9      0.13      0.00
   13    2    9      0.27      0.00
   15    2    9      0.20      0.00
    0    3    9     -0.15      0.00
    2    3    9      0.33      0.00
    4    3    9      0.26      0.00
    6    3    9     -0.26      0.00
    8    3    9     -0.06      0.00
   10    3    9      0.02      0.00
   12    3    9     -0.10      0.00
   14    3    9      0.10      0.00
    1    4    9     -0.11      0.00
    3    4    9     -0.06      0.00
    5    4    9      0.05      0.00
    7    4    9     -0.03      0.00
    9    4    9     -0.03      0.00
   11    4    9      0.07      0.00
    0    5    9      0.26      0.00
    2    5    9      0.03      0.00
    4    5    9      0.09      0.00
    6    5    9      0.11      0.00
    8    5    9     -0.10      0.00
    1    6    9     -0.02      0.00
    3    6    9      0.06      0.00
    0    0   10     -0.24      0.00
    2    0   10      0.17      0.00
    4    0   10      0.62      0.00
    6    0   10      0.16      0.00
    8    0   10     -0.35      0.00
   10    0   10      0.70      0.00
   12    0   10      1.00      0.00
   14    0   10      0.32      0.00
    1    1   10     -0.02      0.00
    3    1   10      0.08      0.00
    5    1   10      0.02      0.00
    7    1   10     -0.22      0.00
    9    1   10     -0.11      0.00
   11    1   10      0.11      0.00
   13    1   10     -0.19      0.00
    0    2   10     -0.04      0.00
    2    2   10     -0.11      0.00
    4    2   10     -0.13      0.00
    6    2   10     -0.12      0.00
    8    2   10      0.02      0.00
   10    2   10     -0.16      0.00
   12    2   10     -0.27      0.00
    1    3   10     -0.02      0.00
    3    3   10      0.01      0.00
    5    3   10      0.27      0.00
    7    3   10      0.14      0.00
    9    3   10     -0.09      0.00
   11    3   10      0.18      0.00
    0    4   10      0.12      0.00
    2    4   10      0.07      0.00
    4    4   10     -0.01      0.00
    6    4   10     -0.05      0.00
    8    4   10      0.06      0.00
   10    4   10      0.03      0.00
    1    5   10     -0.14      0.00
    3    5   10     -0.25      0.00
    5    5   10     -0.29      0.00
    1    0   11      0.23      0.00
    3    0   11     -0.45      0.00
    5    0   11     -0.51      0.00
    7    0   11      0.10      0.00
    9    0   11     -0.71      0.00
   13    0   11     -0.57      0.00
    0    1   11     -0.11      0.00
    2    1   11     -0.15      0.00
    4    1   11     -0.16      0.00
    6    1   11     -0.01      0.00
    8    1   11     -0.01      0.00
   10    1   11     -0.17      0.00
   12    1   11      0.18      0.00
    1    2   11      0.25      0.00
    3    2   11      0.12      0.00
    5    2   11      0.17      0.00
    7    2   11      0.13      0.00
    9    2   11      0.11      0.00
   11    2   11      0.17      0.00
    0    3   11     -0.06      0.00
    2    3   11     -0.28      0.00
    4    3   11     -0.49      0.00
    6    3   11     -0.15      0.00
    8    3   11      0.15      0.00
   10    3   11     -0.15      0.00
    1    4   11      0.04      0.00
    3    4   11      0.15      0.00
    5    4   11      0.14      0.00
    7    4   11      0.06      0.00
    0    5   11     -0.03      0.00
    0    0   12     -0.26      0.00
    2    0   12      0.08      0.00
    4    0   12      0.46      0.00
    6    0   12      0.15      0.00
    8    0   12      0.16      0.00
   10    0   12      1.05      0.00
    1    1   12     -0.04      0.00
    3    1   12      0.03      0.00
    5    1   12     -0.02      0.00
    7    1   12      0.06      0.00
    9    1   12      0.26      0.00
    0    2   12     -0.33      0.00
    2    2   12     -0.08      0.00
    4    2   12      0.04      0.00
    6    2   12     -0.22      0.00
    8    2   12     -0.12      0.00
    1    3   12      0.01      0.00
    3    3   12      0.38      0.00
    5    3   12      0.21      0.00
    7    3   12     -0.25      0.00
    0    4   12     -0.02      0.00
    2    4   12     -0.12      0.00
    4    4   12     -0.14      0.00
    1    0   13      0.05      0.00
    3    0   13     -0.30      0.00
    5    0   13     -0.27      0.00
    7    0   13      0.08      0.00
    0    1   13      0.23      0.00
    2    1   13      0.07      0.00
    4    1   13      0.17      0.00
    6    1   13      0.20      0.00
    8    1   13     -0.13      0.00
    1    2   13      0.03      0.00
    3    2   13     -0.22      0.00
    5    2   13     -0.01      0.00
    0    3   13      0.21      0.00
    2    3   13      0.05      0.00
    0    0   14      0.01      0.00
    2    0   14      0.32      0.00
    4    0   14      0.39      0.00
    1    1   14      0.02      0.00
    3    1   14      0.03      0.00
   18    4    0     -0.01      0.00
    7    0    1     -4.11      0.00
   20    2    2     -0.18      0.00
   19    3    2     -0.21      0.00
    0    1    3     -1.13      0.00
   13    6    3     -0.05      0.00
   20    0    4      0.29      0.00
    5    7    6      0.32      0.00
   18    1    7     -0.10      0.00
    9    6    7      0.03      0.00
   17    1    8     -0.05      0.00
   16    1    9      0.07      0.00
   14    2   10     -0.19      0.00
    7    5   10      0.01      0.00
   11    0   11     -1.64      0.00
    2    5   11      0.07      0.00
   11    1   12     -0.03      0.00
   10    2   12     -0.01      0.00
    7    2   13      0.16      0.00
    4    3   13     -0.12      0.00
    0    0    0      0.00      0.00
# SQUEEZE RESULTS (Version = 120716)
# Note: Data are Listed for all Voids in the P1 Unit Cell
# i.e. Centre of Gravity, Solvent Accessible Volume,
# Recovered number of Electrons in the Void and
# Details about the Squeezed Material
loop_
  _platon_squeeze_void_nr
  _platon_squeeze_void_average_x
  _platon_squeeze_void_average_y
  _platon_squeeze_void_average_z
  _platon_squeeze_void_volume
  _platon_squeeze_void_count_electrons
  _platon_squeeze_void_content
   1  0.500 -0.035  0.000       280         3 ' '
   2  0.000 -0.034  0.500       280         3 ' '
# Missing Reflections Below sin(th)/lambda = 0.25
loop_
  _platon_missing_refln_index_h
  _platon_missing_refln_index_k
  _platon_missing_refln_index_l
  _platon_missing_refln_theta
    7    0    1     8.449
    0    1    3     6.004
_platon_squeeze_void_probe_radius                  1.20
_platon_squeeze_details
)
TITL mo_mil5310I m m a      R = 0.04
CELL   17.2910    6.6006   11.8870     90.00     90.00     90.00
SPGR Imma
# Solvent Accessible Volume =       561
# Electrons Found in S.A.V. =         4
# Note: Atoms in Void as Cxxx and Qxxx all others
Q101 0.500 0.759 0.422 !       0.71 eA-3
)
;
_shelx_fab_checksum              82118

