####################################################################### 
# 
# This file contains crystal structure data downloaded from the 
# Cambridge Structural Database (CSD) hosted by the Cambridge 
# Crystallographic Data Centre (CCDC).
# 
# Full information about CCDC data access policies and citation 
# guidelines are available at http://www.ccdc.cam.ac.uk/access/V1 
# 
# Audit and citation data items may have been added by the CCDC. 
# Please retain this information to preserve the provenance of 
# this file and to allow appropriate attribution of the data. 
# 
#######################################################################

data_UiO-66(Ce)_BDC-DS
_audit_block_doi                 10.5517/cc13szjd
_database_code_depnum_ccdc_archive 'CCDC 1036904'
loop_
_citation_id
_citation_doi
_citation_year
1 10.1039/c5cc02606g 2015
_audit_update_record             
;
2014-11-30 deposited with the CCDC.	2023-06-17 downloaded from the CCDC.
;

#==============================================================================
# Chemical + Structural + Crystal Information
#==============================================================================
_chemical_formula_moiety         'C72 Ce12 O64'
_chemical_formula_sum            'C72 Ce12 O64'
_chemical_formula_weight         3570.16
_cell_formula_units_Z            2
_pd_char_colour                  yellowish_white
_exptl_crystal_density_diffrn    1.198
_exptl_crystal_density_meas      'Not measured'
_exptl_crystal_density_method    'Not measured'
_cell_measurement_temperature    298

#==============================================================================
# Instrument + Refinement Information
#==============================================================================
_diffrn_ambient_temperature      298
_diffrn_measurement_device_type  'Stoe STADIP'
_diffrn_radiation_probe          x-ray
_diffrn_radiation_wavelength     1.54056
_diffrn_radiation_type           CuK\a~1~
_pd_proc_ls_prof_R_factor        0.0429
_pd_proc_ls_prof_wR_factor       0.0602
_pd_proc_ls_prof_wR_expected     0.0265
_refine_ls_R_I_factor            0.0586
_refine_ls_goodness_of_fit_all   2.26844
_refine_ls_shift/su_max          0
_refine_ls_number_parameters     0.000000
_refine_ls_number_restraints     18
_refine_diff_density_max         ? #Highest Fourier peak
_refine_diff_density_min         ? #Deepest Fourier hole

#==============================================================================
# Phase Information
#==============================================================================
_cell_length_a                   21.4727(3)
_cell_length_b                   21.4727(3)
_cell_length_c                   21.4727(3)
_cell_angle_alpha                90
_cell_angle_beta                 90
_cell_angle_gamma                90
_cell_volume                     9900.6(4)
_symmetry_cell_setting           cubic
_symmetry_space_group_name_H-M   'F m -3 m'
_symmetry_space_group_name_Hall  '-F 4 2 3'
_space_group_IT_number           225
loop_
_symmetry_equiv_pos_as_xyz
'x, y, z '
'-x, -y, z '
'-x, -z, -y '
'-x, -z, y '
'-x, z, -y '
'-x, z, y '
'-x, y, -z '
'-x, y, z '
'-y, -x, -z '
'-y, -x, z '
'-y, -z, -x '
'-y, -z, x '
'-y, z, -x '
'-y, z, x '
'-y, x, -z '
'-y, x, z '
'-z, -x, -y '
'-z, -x, y '
'-z, -y, -x '
'-z, -y, x '
'-z, y, -x '
'-z, y, x '
'-z, x, -y '
'-z, x, y '
'z, -x, -y '
'z, -x, y '
'z, -y, -x '
'z, -y, x '
'z, y, -x '
'z, y, x '
'z, x, -y '
'z, x, y '
'y, -x, -z '
'y, -x, z '
'y, -z, -x '
'y, -z, x '
'y, z, -x '
'y, z, x '
'y, x, -z '
'y, x, z '
'x, -y, -z '
'x, -y, z '
'x, -z, -y '
'x, -z, y '
'x, z, -y '
'x, z, y '
'x, y, -z '
'-x, -y, -z '
'x+1/2, y+1/2, z '
'-x+1/2, -y+1/2, z '
'-x+1/2, -z+1/2, -y '
'-x+1/2, -z+1/2, y '
'-x+1/2, z+1/2, -y '
'-x+1/2, z+1/2, y '
'-x+1/2, y+1/2, -z '
'-x+1/2, y+1/2, z '
'-y+1/2, -x+1/2, -z '
'-y+1/2, -x+1/2, z '
'-y+1/2, -z+1/2, -x '
'-y+1/2, -z+1/2, x '
'-y+1/2, z+1/2, -x '
'-y+1/2, z+1/2, x '
'-y+1/2, x+1/2, -z '
'-y+1/2, x+1/2, z '
'-z+1/2, -x+1/2, -y '
'-z+1/2, -x+1/2, y '
'-z+1/2, -y+1/2, -x '
'-z+1/2, -y+1/2, x '
'-z+1/2, y+1/2, -x '
'-z+1/2, y+1/2, x '
'-z+1/2, x+1/2, -y '
'-z+1/2, x+1/2, y '
'z+1/2, -x+1/2, -y '
'z+1/2, -x+1/2, y '
'z+1/2, -y+1/2, -x '
'z+1/2, -y+1/2, x '
'z+1/2, y+1/2, -x '
'z+1/2, y+1/2, x '
'z+1/2, x+1/2, -y '
'z+1/2, x+1/2, y '
'y+1/2, -x+1/2, -z '
'y+1/2, -x+1/2, z '
'y+1/2, -z+1/2, -x '
'y+1/2, -z+1/2, x '
'y+1/2, z+1/2, -x '
'y+1/2, z+1/2, x '
'y+1/2, x+1/2, -z '
'y+1/2, x+1/2, z '
'x+1/2, -y+1/2, -z '
'x+1/2, -y+1/2, z '
'x+1/2, -z+1/2, -y '
'x+1/2, -z+1/2, y '
'x+1/2, z+1/2, -y '
'x+1/2, z+1/2, y '
'x+1/2, y+1/2, -z '
'-x+1/2, -y+1/2, -z '
'x+1/2, y, z+1/2 '
'-x+1/2, -y, z+1/2 '
'-x+1/2, -z, -y+1/2 '
'-x+1/2, -z, y+1/2 '
'-x+1/2, z, -y+1/2 '
'-x+1/2, z, y+1/2 '
'-x+1/2, y, -z+1/2 '
'-x+1/2, y, z+1/2 '
'-y+1/2, -x, -z+1/2 '
'-y+1/2, -x, z+1/2 '
'-y+1/2, -z, -x+1/2 '
'-y+1/2, -z, x+1/2 '
'-y+1/2, z, -x+1/2 '
'-y+1/2, z, x+1/2 '
'-y+1/2, x, -z+1/2 '
'-y+1/2, x, z+1/2 '
'-z+1/2, -x, -y+1/2 '
'-z+1/2, -x, y+1/2 '
'-z+1/2, -y, -x+1/2 '
'-z+1/2, -y, x+1/2 '
'-z+1/2, y, -x+1/2 '
'-z+1/2, y, x+1/2 '
'-z+1/2, x, -y+1/2 '
'-z+1/2, x, y+1/2 '
'z+1/2, -x, -y+1/2 '
'z+1/2, -x, y+1/2 '
'z+1/2, -y, -x+1/2 '
'z+1/2, -y, x+1/2 '
'z+1/2, y, -x+1/2 '
'z+1/2, y, x+1/2 '
'z+1/2, x, -y+1/2 '
'z+1/2, x, y+1/2 '
'y+1/2, -x, -z+1/2 '
'y+1/2, -x, z+1/2 '
'y+1/2, -z, -x+1/2 '
'y+1/2, -z, x+1/2 '
'y+1/2, z, -x+1/2 '
'y+1/2, z, x+1/2 '
'y+1/2, x, -z+1/2 '
'y+1/2, x, z+1/2 '
'x+1/2, -y, -z+1/2 '
'x+1/2, -y, z+1/2 '
'x+1/2, -z, -y+1/2 '
'x+1/2, -z, y+1/2 '
'x+1/2, z, -y+1/2 '
'x+1/2, z, y+1/2 '
'x+1/2, y, -z+1/2 '
'-x+1/2, -y, -z+1/2 '
'x, y+1/2, z+1/2 '
'-x, -y+1/2, z+1/2 '
'-x, -z+1/2, -y+1/2 '
'-x, -z+1/2, y+1/2 '
'-x, z+1/2, -y+1/2 '
'-x, z+1/2, y+1/2 '
'-x, y+1/2, -z+1/2 '
'-x, y+1/2, z+1/2 '
'-y, -x+1/2, -z+1/2 '
'-y, -x+1/2, z+1/2 '
'-y, -z+1/2, -x+1/2 '
'-y, -z+1/2, x+1/2 '
'-y, z+1/2, -x+1/2 '
'-y, z+1/2, x+1/2 '
'-y, x+1/2, -z+1/2 '
'-y, x+1/2, z+1/2 '
'-z, -x+1/2, -y+1/2 '
'-z, -x+1/2, y+1/2 '
'-z, -y+1/2, -x+1/2 '
'-z, -y+1/2, x+1/2 '
'-z, y+1/2, -x+1/2 '
'-z, y+1/2, x+1/2 '
'-z, x+1/2, -y+1/2 '
'-z, x+1/2, y+1/2 '
'z, -x+1/2, -y+1/2 '
'z, -x+1/2, y+1/2 '
'z, -y+1/2, -x+1/2 '
'z, -y+1/2, x+1/2 '
'z, y+1/2, -x+1/2 '
'z, y+1/2, x+1/2 '
'z, x+1/2, -y+1/2 '
'z, x+1/2, y+1/2 '
'y, -x+1/2, -z+1/2 '
'y, -x+1/2, z+1/2 '
'y, -z+1/2, -x+1/2 '
'y, -z+1/2, x+1/2 '
'y, z+1/2, -x+1/2 '
'y, z+1/2, x+1/2 '
'y, x+1/2, -z+1/2 '
'y, x+1/2, z+1/2 '
'x, -y+1/2, -z+1/2 '
'x, -y+1/2, z+1/2 '
'x, -z+1/2, -y+1/2 '
'x, -z+1/2, y+1/2 '
'x, z+1/2, -y+1/2 '
'x, z+1/2, y+1/2 '
'x, y+1/2, -z+1/2 '
'-x, -y+1/2, -z+1/2 '

# Atomic coordinates & thermal parameters
loop_
_atom_site_label
_atom_site_type_symbol
_atom_site_symmetry_multiplicity
_atom_site_fract_x
_atom_site_fract_y
_atom_site_fract_z
_atom_site_occupancy
_atom_site_B_iso_or_equiv
Ce1 Ce 24 0.12416(18) 0 0 1 0.36(11)
O1 O 96 0.1747(7) 0 0.0997(6) 1 1.4(4)
C1 C 48 0.157(2) 0 0.157(2) 0.5 0.5(7)
C2 C 48 0.204(2) 0 0.204(2) 0.5 0.5(7)
C3 C 96 0.2666(9) 0 0.1875(9) 1 0.5(7)
O8 O 32 0.0656(7) 0.0656(7) 0.0656(7) 1 1.4(4)

# Molecular Geometry
loop_
_geom_bond_atom_site_label_1
_geom_bond_atom_site_label_2
_geom_bond_distance
_geom_bond_site_symmetry_1
_geom_bond_site_symmetry_2
Ce1 O8 2.356(11) 1_555 26_555
Ce1 O8 2.356(11) 1_555 1_555
Ce1 O8 2.356(11) 1_555 29_555
Ce1 O8 2.356(11) 1_555 25_555
Ce1 O1 2.401(14) 1_555 41_555
Ce1 O1 2.401(14) 1_555 43_555
Ce1 O1 2.401(14) 1_555 1_555
Ce1 O1 2.401(14) 1_555 45_555
O1 C1 1.28(4) 1_555 1_555
C1 C2 1.44(10) 1_555 1_555
C2 C3 1.39(4) 1_555 1_555
C2 C3 1.39(4) 1_555 28_555
C3 C3 1.39(4) 1_555 115_555
loop_
_geom_angle_atom_site_label_1
_geom_angle_atom_site_label_2
_geom_angle_atom_site_label_3
_geom_angle
_geom_angle_site_symmetry_1
_geom_angle_site_symmetry_2
_geom_angle_site_symmetry_3
O8 Ce1 O8 73.5(5) 1_555 1_555 26_555
O8 Ce1 O8 73.5(5) 29_555 1_555 1_555
O8 Ce1 O8 115.5(11) 29_555 1_555 26_555
O8 Ce1 O8 73.5(5) 25_555 1_555 29_555
O8 Ce1 O8 115.5(11) 25_555 1_555 1_555
O8 Ce1 O8 73.5(5) 25_555 1_555 26_555
O1 Ce1 O8 73.0(5) 41_555 1_555 25_555
O1 Ce1 O8 73.0(5) 41_555 1_555 29_555
O1 Ce1 O8 140.77(13) 41_555 1_555 1_555
O1 Ce1 O8 140.77(13) 41_555 1_555 26_555
O1 Ce1 O1 78.2(3) 43_555 1_555 41_555
O1 Ce1 O8 73.0(5) 43_555 1_555 25_555
O1 Ce1 O8 140.77(13) 43_555 1_555 29_555
O1 Ce1 O8 140.77(13) 43_555 1_555 1_555
O1 Ce1 O8 73.0(5) 43_555 1_555 26_555
O1 Ce1 O1 78.2(3) 1_555 1_555 43_555
O1 Ce1 O1 126.2(7) 1_555 1_555 41_555
O1 Ce1 O8 140.77(13) 1_555 1_555 25_555
O1 Ce1 O8 140.77(13) 1_555 1_555 29_555
O1 Ce1 O8 73.0(5) 1_555 1_555 1_555
O1 Ce1 O8 73.0(5) 1_555 1_555 26_555
O1 Ce1 O1 78.2(3) 45_555 1_555 1_555
O1 Ce1 O1 126.2(7) 45_555 1_555 43_555
O1 Ce1 O1 78.2(3) 45_555 1_555 41_555
O1 Ce1 O8 140.77(13) 45_555 1_555 25_555
O1 Ce1 O8 73.0(5) 45_555 1_555 29_555
O1 Ce1 O8 73.0(5) 45_555 1_555 1_555
O1 Ce1 O8 140.77(13) 45_555 1_555 26_555
Ce1 O1 C1 135(3) 1_555 1_555 1_555
O1 C1 O1 126(6) 1_555 1_555 28_555
C2 C1 O1 117(3) 1_555 1_555 1_555
C3 C2 C3 119(5) 28_555 1_555 1_555
C1 C2 C3 120(3) 1_555 1_555 28_555

#==============================================================================
# PD Data Block - Obs + Calc
#==============================================================================
_pd_proc_2theta_range_min        4.98663
_pd_proc_2theta_range_max        99.99735
_pd_proc_2theta_range_inc        0.02626
_pd_meas_number_of_points        3619

loop_
_pd_proc_point_id
_pd_meas_2theta_scan
_pd_proc_intensity_total
_pd_calc_intensity_total
_pd_proc_ls_weight
1 4.98663 2730.98735 3023.00000 0.00033
2 5.01289 2869.08671 3055.00000 0.00033
3 5.03915 2971.29282 2937.00000 0.00034
4 5.06541 3042.70176 2997.00000 0.00033
5 5.09167 3087.92156 2929.00000 0.00034
6 5.11793 3111.10612 3033.00000 0.00033
7 5.14419 3115.98757 3007.00000 0.00033
8 5.17045 3105.90682 2879.00000 0.00035
9 5.19671 3083.84261 2927.00000 0.00034
10 5.22298 3052.43899 2894.00000 0.00035
11 5.24924 3014.03128 2941.00000 0.00034
12 5.27550 2970.67060 2905.00000 0.00034
13 5.30176 2924.14699 2875.00000 0.00035
14 5.32802 2876.01121 2817.00000 0.00035
15 5.35428 2827.59524 2879.00000 0.00035
16 5.38054 2780.03154 2738.00000 0.00037
17 5.40680 2734.27115 2715.00000 0.00037
18 5.43306 2691.10060 2708.00000 0.00037
19 5.45932 2651.15779 2798.00000 0.00036
20 5.48558 2614.94680 2735.00000 0.00037
21 5.51184 2582.85171 2745.00000 0.00036
22 5.53810 2555.14949 2707.00000 0.00037
23 5.56436 2532.02199 2711.00000 0.00037
24 5.59062 2513.56706 2679.00000 0.00037
25 5.61688 2499.80886 2591.00000 0.00039
26 5.64314 2490.70747 2684.00000 0.00037
27 5.66940 2486.16765 2649.00000 0.00038
28 5.69567 2486.04702 2572.00000 0.00039
29 5.72193 2490.16358 2664.00000 0.00038
30 5.74819 2498.30257 2647.00000 0.00038
31 5.77445 2510.22281 2606.00000 0.00038
32 5.80071 2525.66254 2541.00000 0.00039
33 5.82697 2544.34467 2529.00000 0.00040
34 5.85323 2565.98172 2592.00000 0.00039
35 5.87949 2590.28017 2586.00000 0.00039
36 5.90575 2616.94465 2586.00000 0.00039
37 5.93201 2645.68159 2562.00000 0.00039
38 5.95827 2676.20270 2599.00000 0.00038
39 5.98453 2708.22823 2549.00000 0.00039
40 6.01079 2741.48993 2607.00000 0.00038
41 6.03705 2775.73399 2662.00000 0.00038
42 6.06331 2810.72391 2680.00000 0.00037
43 6.08957 2846.24336 2625.00000 0.00038
44 6.11583 2882.09929 2710.00000 0.00037
45 6.14210 2918.12534 2722.00000 0.00037
46 6.16836 2954.18576 2788.00000 0.00036
47 6.19462 2990.18031 2767.00000 0.00036
48 6.22088 3026.05042 2752.00000 0.00036
49 6.24714 3061.78760 2767.00000 0.00036
50 6.27340 3097.44496 2885.00000 0.00035
51 6.29966 3133.15418 2838.00000 0.00035
52 6.32592 3169.15103 3028.00000 0.00033
53 6.35218 3205.81589 3145.00000 0.00032
54 6.37844 3243.74148 3322.00000 0.00030
55 6.40470 3283.85358 3372.00000 0.00030
56 6.43096 3327.65453 3534.00000 0.00028
57 6.45722 3377.89627 3576.00000 0.00028
58 6.48348 3441.09804 3665.00000 0.00027
59 6.50974 3534.76942 3862.00000 0.00026
60 6.53600 3694.69644 3930.00000 0.00025
61 6.56226 3952.54794 4156.00000 0.00024
62 6.58852 4295.27336 4493.00000 0.00022
63 6.61479 4695.00360 4881.00000 0.00020
64 6.64105 5138.77988 5179.00000 0.00019
65 6.66731 5625.18166 5638.00000 0.00018
66 6.69357 6157.58023 6152.00000 0.00016
67 6.71983 6741.70936 6501.00000 0.00015
68 6.74609 7385.32593 7200.00000 0.00014
69 6.77235 8098.47457 7708.00000 0.00013
70 6.79861 8894.06878 8673.00000 0.00012
71 6.82487 9788.81948 9516.00000 0.00011
72 6.85113 10804.65668 10403.00000 0.00010
73 6.87739 11970.92411 11868.00000 0.00008
74 6.90365 13327.86266 13595.00000 0.00007
75 6.92991 14932.36825 15371.00000 0.00007
76 6.95617 16868.04632 17557.00000 0.00006
77 6.98243 19264.25452 20459.00000 0.00005
78 7.00869 22337.87147 23753.00000 0.00004
79 7.03495 26505.07040 29087.00000 0.00003
80 7.06121 32613.26588 36187.00000 0.00003
81 7.08748 41531.20664 46241.00000 0.00002
82 7.11374 50310.38245 55892.00000 0.00002
83 7.14000 46587.71735 50263.00000 0.00002
84 7.16626 27965.65198 30629.00000 0.00003
85 7.19252 14097.35650 14235.00000 0.00007
86 7.21878 8220.65995 8178.00000 0.00012
87 7.24504 5996.69141 5892.00000 0.00017
88 7.27130 4925.93171 4754.00000 0.00021
89 7.29756 4275.46829 4075.00000 0.00025
90 7.32382 3836.87158 3698.00000 0.00027
91 7.35008 3522.62998 3400.00000 0.00029
92 7.37634 3286.76726 3183.00000 0.00031
93 7.40260 3102.97501 2956.00000 0.00034
94 7.42886 2955.33726 3038.00000 0.00033
95 7.45512 2833.79501 2852.00000 0.00035
96 7.48138 2731.77186 2715.00000 0.00037
97 7.50764 2644.86459 2641.00000 0.00038
98 7.53391 2570.09319 2653.00000 0.00038
99 7.56017 2505.46499 2553.00000 0.00039
100 7.58643 2449.73316 2653.00000 0.00038
101 7.61269 2402.30563 2513.00000 0.00040
102 7.63895 2363.37623 2549.00000 0.00039
103 7.66521 2334.77184 2632.00000 0.00038
104 7.69147 2322.64886 2610.00000 0.00038
105 7.71773 2340.83897 2664.00000 0.00038
106 7.74399 2404.18036 2625.00000 0.00038
107 7.77025 2510.50993 2785.00000 0.00036
108 7.79651 2648.45196 2854.00000 0.00035
109 7.82277 2812.01023 2936.00000 0.00034
110 7.84903 3000.75935 2910.00000 0.00034
111 7.87529 3216.99860 3095.00000 0.00032
112 7.90155 3464.56518 3216.00000 0.00031
113 7.92781 3748.77754 3432.00000 0.00029
114 7.95407 4076.87630 3539.00000 0.00028
115 7.98033 4458.66536 3933.00000 0.00025
116 8.00660 4907.69155 4166.00000 0.00024
117 8.03286 5443.18650 4614.00000 0.00022
118 8.05912 6093.47437 4990.00000 0.00020
119 8.08538 6902.45849 5619.00000 0.00018
120 8.11164 7943.99603 6546.00000 0.00015
121 8.13790 9360.27449 7682.00000 0.00013
122 8.16416 11436.81901 9313.00000 0.00011
123 8.19042 14454.26558 11229.00000 0.00009
124 8.21668 17453.23864 13541.00000 0.00007
125 8.24294 16484.31156 12673.00000 0.00008
126 8.26920 10459.56660 8552.00000 0.00012
127 8.29546 5675.08340 4932.00000 0.00020
128 8.32172 3563.22646 3377.00000 0.00030
129 8.34798 2764.19641 2751.00000 0.00036
130 8.37424 2392.83598 2447.00000 0.00041
131 8.40050 2172.78652 2228.00000 0.00045
132 8.42676 2027.14651 2133.00000 0.00047
133 8.45302 1925.05347 2024.00000 0.00049
134 8.47929 1850.45431 2069.00000 0.00048
135 8.50555 1794.15477 1950.00000 0.00051
136 8.53181 1750.56937 1935.00000 0.00052
137 8.55807 1716.13937 1900.00000 0.00053
138 8.58433 1688.50440 1935.00000 0.00052
139 8.61059 1666.04417 1874.00000 0.00053
140 8.63685 1647.61266 1825.00000 0.00055
141 8.66311 1632.37761 1884.00000 0.00053
142 8.68937 1619.72028 1800.00000 0.00056
143 8.71563 1609.17079 1843.00000 0.00054
144 8.74189 1600.36540 1788.00000 0.00056
145 8.76815 1593.01749 1815.00000 0.00055
146 8.79441 1586.89756 1744.00000 0.00057
147 8.82067 1581.81910 1758.00000 0.00057
148 8.84693 1577.62844 1696.00000 0.00059
149 8.87319 1574.19739 1778.00000 0.00056
150 8.89945 1571.41779 1728.00000 0.00058
151 8.92572 1569.19739 1728.00000 0.00058
152 8.95198 1567.45683 1611.00000 0.00062
153 8.97824 1566.12722 1656.00000 0.00060
154 9.00450 1565.14837 1707.00000 0.00059
155 9.03076 1564.46729 1690.00000 0.00059
156 9.05702 1564.03711 1618.00000 0.00062
157 9.08328 1563.81617 1686.00000 0.00059
158 9.10954 1563.76733 1675.00000 0.00060
159 9.13580 1563.85733 1649.00000 0.00061
160 9.16206 1564.05635 1716.00000 0.00058
161 9.18832 1564.33764 1610.00000 0.00062
162 9.21458 1564.67712 1631.00000 0.00061
163 9.24084 1565.05320 1683.00000 0.00059
164 9.26710 1565.44649 1561.00000 0.00064
165 9.29336 1565.83960 1616.00000 0.00062
166 9.31962 1566.21700 1642.00000 0.00061
167 9.34588 1566.56487 1591.00000 0.00063
168 9.37214 1566.87094 1649.00000 0.00061
169 9.39841 1567.12441 1637.00000 0.00061
170 9.42467 1567.31582 1587.00000 0.00063
171 9.45093 1567.43698 1582.00000 0.00063
172 9.47719 1567.48086 1541.00000 0.00065
173 9.50345 1567.44168 1519.00000 0.00066
174 9.52971 1567.31483 1561.00000 0.00064
175 9.55597 1567.09647 1527.00000 0.00065
176 9.58223 1566.78363 1582.00000 0.00063
177 9.60849 1566.37425 1548.00000 0.00065
178 9.63475 1565.86705 1537.00000 0.00065
179 9.66101 1565.26158 1528.00000 0.00065
180 9.68727 1564.55818 1557.00000 0.00064
181 9.71353 1563.75807 1542.00000 0.00065
182 9.73979 1562.86361 1537.00000 0.00065
183 9.76605 1561.87964 1454.00000 0.00069
184 9.79231 1560.82942 1471.00000 0.00068
185 9.81857 1559.65505 1478.00000 0.00068
186 9.84483 1558.38186 1535.00000 0.00065
187 9.87110 1557.02409 1440.00000 0.00069
188 9.89736 1555.58550 1437.00000 0.00070
189 9.92362 1554.07013 1567.00000 0.00064
190 9.94988 1552.48229 1430.00000 0.00070
191 9.97614 1550.82652 1474.00000 0.00068
192 10.00240 1549.10753 1453.00000 0.00069
193 10.02866 1547.33021 1472.00000 0.00068
194 10.05492 1545.49929 1542.00000 0.00065
195 10.08118 1543.61533 1469.00000 0.00068
196 10.10744 1541.68187 1465.00000 0.00068
197 10.13370 1539.70394 1443.00000 0.00069
198 10.15996 1537.68642 1455.00000 0.00069
199 10.18622 1535.63415 1488.00000 0.00067
200 10.21248 1533.55192 1446.00000 0.00069
201 10.23874 1531.44441 1429.00000 0.00070
202 10.26500 1529.31629 1468.00000 0.00068
203 10.29126 1527.17222 1485.00000 0.00067
204 10.31752 1525.01719 1445.00000 0.00069
205 10.34379 1522.85795 1483.00000 0.00067
206 10.37005 1520.72042 1494.00000 0.00067
207 10.39631 1518.54115 1448.00000 0.00069
208 10.42257 1516.34419 1499.00000 0.00067
209 10.44883 1514.14262 1413.00000 0.00071
210 10.47509 1511.93522 1480.00000 0.00068
211 10.50135 1509.71846 1477.00000 0.00068
212 10.52761 1507.48508 1398.00000 0.00072
213 10.55387 1505.22119 1456.00000 0.00069
214 10.58013 1502.89933 1418.00000 0.00071
215 10.60639 1500.45733 1440.00000 0.00069
216 10.63265 1497.69129 1424.00000 0.00070
217 10.65891 1493.92918 1502.00000 0.00067
218 10.68517 1492.34428 1461.00000 0.00068
219 10.71143 1490.80933 1415.00000 0.00071
220 10.73769 1489.32656 1461.00000 0.00068
221 10.76395 1487.89806 1423.00000 0.00070
222 10.79022 1486.52584 1453.00000 0.00069
223 10.81648 1485.21186 1438.00000 0.00070
224 10.84274 1483.95806 1454.00000 0.00069
225 10.86900 1482.76643 1540.00000 0.00065
226 10.89526 1481.63912 1556.00000 0.00064
227 10.92152 1480.57852 1455.00000 0.00069
228 10.94778 1479.58740 1471.00000 0.00068
229 10.97404 1478.66915 1498.00000 0.00067
230 11.00030 1477.82801 1493.00000 0.00067
231 11.02656 1477.06947 1492.00000 0.00067
232 11.05282 1476.40087 1483.00000 0.00067
233 11.07908 1475.83220 1458.00000 0.00069
234 11.10534 1475.37742 1443.00000 0.00069
235 11.13160 1475.05665 1551.00000 0.00064
236 11.15786 1474.89983 1520.00000 0.00066
237 11.18412 1474.95397 1495.00000 0.00067
238 11.21038 1475.30280 1491.00000 0.00067
239 11.23664 1476.13477 1510.00000 0.00066
240 11.26291 1477.92771 1455.00000 0.00069
241 11.28917 1481.66844 1488.00000 0.00067
242 11.31543 1488.50726 1623.00000 0.00062
243 11.34169 1498.63194 1610.00000 0.00062
244 11.36795 1511.53329 1597.00000 0.00063
245 11.39421 1527.01358 1587.00000 0.00063
246 11.42047 1545.36343 1588.00000 0.00063
247 11.44673 1567.26036 1616.00000 0.00062
248 11.47299 1593.79098 1666.00000 0.00060
249 11.49925 1626.67052 1743.00000 0.00057
250 11.52551 1668.80316 1716.00000 0.00058
251 11.55177 1725.77003 2013.00000 0.00050
252 11.57803 1808.50296 2058.00000 0.00049
253 11.60429 1928.08900 2140.00000 0.00047
254 11.63055 2055.76624 2432.00000 0.00041
255 11.65681 2061.31305 2279.00000 0.00044
256 11.68307 1856.73801 2030.00000 0.00049
257 11.70933 1650.85094 1698.00000 0.00059
258 11.73560 1545.94988 1566.00000 0.00064
259 11.76186 1504.33850 1541.00000 0.00065
260 11.78812 1486.02091 1446.00000 0.00069
261 11.81438 1475.12777 1471.00000 0.00068
262 11.84064 1467.73734 1461.00000 0.00068
263 11.86690 1462.56018 1456.00000 0.00069
264 11.89316 1458.49809 1397.00000 0.00072
265 11.91942 1455.14200 1406.00000 0.00071
266 11.94568 1452.24514 1424.00000 0.00070
267 11.97194 1449.65117 1442.00000 0.00069
268 11.99820 1447.25685 1467.00000 0.00068
269 12.02446 1444.99160 1443.00000 0.00069
270 12.05072 1442.80565 1459.00000 0.00069
271 12.07698 1440.66298 1482.00000 0.00067
272 12.10324 1438.53691 1395.00000 0.00072
273 12.12950 1436.40728 1324.00000 0.00076
274 12.15576 1434.25861 1356.00000 0.00074
275 12.18203 1432.07883 1392.00000 0.00072
276 12.20829 1429.85845 1431.00000 0.00070
277 12.23455 1427.59024 1420.00000 0.00070
278 12.26081 1425.26903 1364.00000 0.00073
279 12.28707 1422.89031 1433.00000 0.00070
280 12.31333 1420.45061 1390.00000 0.00072
281 12.33959 1417.94740 1374.00000 0.00073
282 12.36585 1415.37916 1356.00000 0.00074
283 12.39211 1412.74545 1440.00000 0.00069
284 12.41837 1410.04761 1410.00000 0.00071
285 12.44463 1407.29177 1354.00000 0.00074
286 12.47089 1404.52773 1398.00000 0.00072
287 12.49715 1401.60171 1382.00000 0.00072
288 12.52341 1398.59762 1415.00000 0.00071
289 12.54967 1395.52273 1415.00000 0.00071
290 12.57593 1392.37811 1424.00000 0.00070
291 12.60219 1389.16516 1323.00000 0.00076
292 12.62845 1385.88561 1370.00000 0.00073
293 12.65472 1382.54148 1340.00000 0.00075
294 12.68098 1379.13510 1353.00000 0.00074
295 12.70724 1375.66915 1387.00000 0.00072
296 12.73350 1372.14662 1419.00000 0.00070
297 12.75976 1368.57087 1343.00000 0.00074
298 12.78602 1364.94563 1359.00000 0.00074
299 12.81228 1361.27507 1313.00000 0.00076
300 12.83854 1357.56381 1389.00000 0.00072
301 12.86480 1353.81699 1382.00000 0.00072
302 12.89106 1350.04037 1418.00000 0.00071
303 12.91732 1346.24040 1450.00000 0.00069
304 12.94358 1342.42440 1346.00000 0.00074
305 12.96984 1338.60070 1460.00000 0.00068
306 12.99610 1334.77895 1291.00000 0.00077
307 13.02236 1330.97038 1320.00000 0.00076
308 13.04862 1327.18832 1449.00000 0.00069
309 13.07488 1323.44885 1333.00000 0.00075
310 13.10114 1319.77172 1328.00000 0.00075
311 13.12741 1316.18175 1286.00000 0.00078
312 13.15367 1312.71091 1355.00000 0.00074
313 13.17993 1309.40160 1327.00000 0.00075
314 13.20619 1306.31198 1274.00000 0.00078
315 13.23245 1303.52524 1280.00000 0.00078
316 13.25871 1301.16820 1271.00000 0.00079
317 13.28497 1299.46323 1354.00000 0.00074
318 13.31123 1298.90197 1243.00000 0.00080
319 13.33749 1300.67960 1319.00000 0.00076
320 13.36375 1307.16282 1308.00000 0.00076
321 13.39001 1321.11157 1376.00000 0.00073
322 13.41627 1343.32086 1270.00000 0.00079
323 13.44253 1373.13091 1396.00000 0.00072
324 13.46879 1410.67584 1378.00000 0.00073
325 13.49505 1457.54562 1376.00000 0.00073
326 13.52131 1516.96129 1433.00000 0.00070
327 13.54757 1594.76119 1450.00000 0.00069
328 13.57384 1702.46024 1539.00000 0.00065
329 13.60010 1861.03342 1646.00000 0.00061
330 13.62636 2083.96371 1839.00000 0.00054
331 13.65262 2299.10262 1997.00000 0.00050
332 13.67888 2267.56028 2086.00000 0.00048
333 13.70514 1898.66714 1656.00000 0.00060
334 13.73140 1552.17860 1417.00000 0.00071
335 13.75766 1374.33251 1350.00000 0.00074
336 13.78392 1302.07364 1318.00000 0.00076
337 13.81018 1270.05484 1281.00000 0.00078
338 13.83644 1251.82333 1324.00000 0.00076
339 13.86270 1239.89772 1291.00000 0.00077
340 13.88896 1231.92742 1262.00000 0.00079
341 13.91522 1226.83907 1288.00000 0.00078
342 13.94148 1224.77117 1260.00000 0.00079
343 13.96774 1227.04369 1289.00000 0.00078
344 13.99400 1236.53784 1275.00000 0.00078
345 14.02026 1256.15002 1327.00000 0.00075
346 14.04653 1286.25028 1290.00000 0.00078
347 14.07279 1326.21104 1343.00000 0.00074
348 14.09905 1376.79275 1350.00000 0.00074
349 14.12531 1440.79535 1335.00000 0.00075
350 14.15157 1523.75138 1470.00000 0.00068
351 14.17783 1636.54669 1411.00000 0.00071
352 14.20409 1800.13993 1626.00000 0.00062
353 14.23035 2036.17879 1832.00000 0.00055
354 14.25661 2299.19140 1952.00000 0.00051
355 14.28287 2368.21185 2022.00000 0.00049
356 14.30913 2030.85760 1757.00000 0.00057
357 14.33539 1608.01466 1502.00000 0.00067
358 14.36165 1363.54534 1370.00000 0.00073
359 14.38791 1260.75891 1340.00000 0.00075
360 14.41417 1218.18420 1260.00000 0.00079
361 14.44043 1195.82675 1278.00000 0.00078
362 14.46669 1181.52418 1253.00000 0.00080
363 14.49295 1171.53813 1204.00000 0.00083
364 14.51922 1164.22803 1241.00000 0.00081
365 14.54548 1158.69405 1291.00000 0.00077
366 14.57174 1154.39973 1160.00000 0.00086
367 14.59800 1151.00874 1196.00000 0.00084
368 14.62426 1148.30136 1169.00000 0.00086
369 14.65052 1146.12897 1208.00000 0.00083
370 14.67678 1144.38790 1220.00000 0.00082
371 14.70304 1143.00387 1204.00000 0.00083
372 14.72930 1141.92235 1204.00000 0.00083
373 14.75556 1141.10242 1160.00000 0.00086
374 14.78182 1140.51270 1160.00000 0.00086
375 14.80808 1140.12870 1289.00000 0.00078
376 14.83434 1139.93093 1179.00000 0.00085
377 14.86060 1139.90359 1133.00000 0.00088
378 14.88686 1140.03366 1135.00000 0.00088
379 14.91312 1140.31022 1166.00000 0.00086
380 14.93938 1140.72398 1235.00000 0.00081
381 14.96564 1141.26690 1175.00000 0.00085
382 14.99191 1141.93189 1171.00000 0.00085
383 15.01817 1142.71267 1126.00000 0.00089
384 15.04443 1143.60354 1170.00000 0.00085
385 15.07069 1144.59933 1189.00000 0.00084
386 15.09695 1145.69517 1216.00000 0.00082
387 15.12321 1146.88648 1195.00000 0.00084
388 15.14947 1148.16903 1171.00000 0.00085
389 15.17573 1149.53883 1212.00000 0.00083
390 15.20199 1150.99207 1229.00000 0.00081
391 15.22825 1152.52510 1183.00000 0.00085
392 15.25451 1154.13441 1188.00000 0.00084
393 15.28077 1155.81662 1172.00000 0.00085
394 15.30703 1157.56843 1196.00000 0.00084
395 15.33329 1159.38662 1147.00000 0.00087
396 15.35955 1161.26796 1189.00000 0.00084
397 15.38581 1163.20911 1199.00000 0.00083
398 15.41207 1165.20600 1124.00000 0.00089
399 15.43834 1167.24739 1115.00000 0.00090
400 15.46460 1169.35277 1188.00000 0.00084
401 15.49086 1171.52188 1183.00000 0.00085
402 15.51712 1173.74098 1236.00000 0.00081
403 15.54338 1176.00844 1161.00000 0.00086
404 15.56964 1178.32292 1214.00000 0.00082
405 15.59590 1180.68342 1209.00000 0.00083
406 15.62216 1183.08936 1181.00000 0.00085
407 15.64842 1185.54062 1197.00000 0.00084
408 15.67468 1188.03767 1176.00000 0.00085
409 15.70094 1190.58164 1147.00000 0.00087
410 15.72720 1193.17453 1168.00000 0.00086
411 15.75346 1195.81934 1185.00000 0.00084
412 15.77972 1198.52031 1191.00000 0.00084
413 15.80598 1201.28328 1195.00000 0.00084
414 15.83224 1204.11648 1192.00000 0.00084
415 15.85850 1207.03074 1190.00000 0.00084
416 15.88476 1210.03981 1179.00000 0.00085
417 15.91103 1213.16183 1197.00000 0.00084
418 15.93729 1216.42076 1173.00000 0.00085
419 15.96355 1219.84886 1224.00000 0.00082
420 15.98981 1223.49179 1234.00000 0.00081
421 16.01607 1227.42626 1195.00000 0.00084
422 16.04233 1231.64771 1198.00000 0.00083
423 16.06859 1236.31130 1191.00000 0.00084
424 16.09485 1241.56874 1263.00000 0.00079
425 16.12111 1247.64565 1217.00000 0.00082
426 16.14737 1254.89923 1187.00000 0.00084
427 16.17363 1263.98302 1241.00000 0.00081
428 16.19989 1276.37283 1276.00000 0.00078
429 16.22615 1295.58196 1371.00000 0.00073
430 16.25241 1328.39892 1384.00000 0.00072
431 16.27867 1383.01159 1429.00000 0.00070
432 16.30493 1463.20262 1542.00000 0.00065
433 16.33119 1569.57481 1544.00000 0.00065
434 16.35745 1706.15979 1798.00000 0.00056
435 16.38372 1884.87755 1964.00000 0.00051
436 16.40998 2131.88551 2219.00000 0.00045
437 16.43624 2490.61453 2686.00000 0.00037
438 16.46250 2971.83374 3274.00000 0.00031
439 16.48876 3394.74616 3930.00000 0.00025
440 16.51502 3285.96654 3714.00000 0.00027
441 16.54128 2563.32993 2900.00000 0.00034
442 16.56754 1908.72508 1896.00000 0.00053
443 16.59380 1568.93355 1553.00000 0.00064
444 16.62006 1430.89566 1420.00000 0.00070
445 16.64632 1372.63451 1304.00000 0.00077
446 16.67258 1341.55893 1268.00000 0.00079
447 16.69884 1321.99448 1339.00000 0.00075
448 16.72510 1308.77877 1283.00000 0.00078
449 16.75136 1299.49940 1306.00000 0.00077
450 16.77762 1292.79508 1255.00000 0.00080
451 16.80388 1287.84020 1310.00000 0.00076
452 16.83015 1284.11079 1234.00000 0.00081
453 16.85641 1281.26174 1299.00000 0.00077
454 16.88267 1279.05864 1298.00000 0.00077
455 16.90893 1277.33804 1277.00000 0.00078
456 16.93519 1275.98344 1271.00000 0.00079
457 16.96145 1274.91029 1242.00000 0.00081
458 16.98771 1274.05635 1279.00000 0.00078
459 17.01397 1273.37574 1239.00000 0.00081
460 17.04023 1272.83502 1321.00000 0.00076
461 17.06649 1272.40871 1276.00000 0.00078
462 17.09275 1272.07825 1238.00000 0.00081
463 17.11901 1271.83085 1279.00000 0.00078
464 17.14527 1271.65962 1242.00000 0.00081
465 17.17153 1271.56923 1275.00000 0.00078
466 17.19779 1271.57145 1277.00000 0.00078
467 17.22405 1271.55866 1259.00000 0.00079
468 17.25031 1271.60406 1314.00000 0.00076
469 17.27657 1271.71139 1335.00000 0.00075
470 17.30284 1271.88666 1178.00000 0.00085
471 17.32910 1272.13889 1239.00000 0.00081
472 17.35536 1272.48029 1299.00000 0.00077
473 17.38162 1272.92687 1223.00000 0.00082
474 17.40788 1273.49929 1321.00000 0.00076
475 17.43414 1274.22413 1301.00000 0.00077
476 17.46040 1275.13565 1257.00000 0.00080
477 17.48666 1276.27836 1258.00000 0.00079
478 17.51292 1277.71066 1270.00000 0.00079
479 17.53918 1279.50982 1303.00000 0.00077
480 17.56544 1281.77290 1369.00000 0.00073
481 17.59170 1284.67323 1326.00000 0.00075
482 17.61796 1288.45523 1311.00000 0.00076
483 17.64422 1293.42330 1391.00000 0.00072
484 17.67048 1300.12746 1319.00000 0.00076
485 17.69674 1309.65945 1282.00000 0.00078
486 17.72300 1324.58905 1454.00000 0.00069
487 17.74926 1350.67028 1356.00000 0.00074
488 17.77553 1397.64701 1440.00000 0.00069
489 17.80179 1475.07121 1468.00000 0.00068
490 17.82805 1586.95757 1475.00000 0.00068
491 17.85431 1737.36595 1657.00000 0.00060
492 17.88057 1939.65161 1644.00000 0.00061
493 17.90683 2225.05826 1910.00000 0.00052
494 17.93309 2638.56944 2293.00000 0.00044
495 17.95935 3164.02891 2695.00000 0.00037
496 17.98561 3551.48621 3020.00000 0.00033
497 18.01187 3307.27431 2734.00000 0.00037
498 18.03813 2527.58529 2237.00000 0.00045
499 18.06439 1893.96784 1664.00000 0.00060
500 18.09065 1575.56396 1552.00000 0.00064
501 18.11691 1446.98004 1436.00000 0.00070
502 18.14317 1393.00638 1428.00000 0.00070
503 18.16943 1366.02668 1373.00000 0.00073
504 18.19569 1352.76296 1374.00000 0.00073
505 18.22196 1350.97766 1370.00000 0.00073
506 18.24822 1363.28156 1368.00000 0.00073
507 18.27448 1393.77664 1467.00000 0.00068
508 18.30074 1444.53100 1444.00000 0.00069
509 18.32700 1517.24202 1478.00000 0.00068
510 18.35326 1618.40634 1590.00000 0.00063
511 18.37952 1764.01640 1686.00000 0.00059
512 18.40578 1976.23221 1814.00000 0.00055
513 18.43204 2242.45438 2130.00000 0.00047
514 18.45830 2428.24284 2378.00000 0.00042
515 18.48456 2286.59163 2143.00000 0.00047
516 18.51082 1890.09235 1713.00000 0.00058
517 18.53708 1576.03131 1548.00000 0.00065
518 18.56334 1418.82694 1430.00000 0.00070
519 18.58960 1354.51931 1419.00000 0.00070
520 18.61586 1326.38692 1330.00000 0.00075
521 18.64212 1310.98107 1365.00000 0.00073
522 18.66838 1301.24337 1326.00000 0.00075
523 18.69465 1294.75926 1350.00000 0.00074
524 18.72091 1290.36869 1319.00000 0.00076
525 18.74717 1287.40555 1257.00000 0.00080
526 18.77343 1285.45989 1359.00000 0.00074
527 18.79969 1284.26803 1305.00000 0.00077
528 18.82595 1283.65402 1342.00000 0.00075
529 18.85221 1283.49686 1322.00000 0.00076
530 18.87847 1283.71151 1369.00000 0.00073
531 18.90473 1284.23644 1405.00000 0.00071
532 18.93099 1285.02625 1307.00000 0.00077
533 18.95725 1286.04724 1345.00000 0.00074
534 18.98351 1287.27470 1303.00000 0.00077
535 19.00977 1288.69584 1360.00000 0.00074
536 19.03603 1290.28600 1339.00000 0.00075
537 19.06229 1292.00755 1396.00000 0.00072
538 19.08855 1293.87229 1398.00000 0.00072
539 19.11481 1295.87184 1316.00000 0.00076
540 19.14107 1297.99932 1380.00000 0.00072
541 19.16734 1300.24906 1373.00000 0.00073
542 19.19360 1302.61634 1356.00000 0.00074
543 19.21986 1305.09720 1344.00000 0.00074
544 19.24612 1307.68833 1457.00000 0.00069
545 19.27238 1310.38697 1400.00000 0.00071
546 19.29864 1313.19084 1374.00000 0.00073
547 19.32490 1316.09805 1442.00000 0.00069
548 19.35116 1319.10713 1382.00000 0.00072
549 19.37742 1322.21696 1380.00000 0.00072
550 19.40368 1325.42679 1317.00000 0.00076
551 19.42994 1328.73628 1375.00000 0.00073
552 19.45620 1332.14550 1440.00000 0.00069
553 19.48246 1335.65499 1408.00000 0.00071
554 19.50872 1339.26587 1358.00000 0.00074
555 19.53498 1342.97989 1361.00000 0.00073
556 19.56124 1346.79962 1388.00000 0.00072
557 19.58750 1350.72863 1446.00000 0.00069
558 19.61376 1354.77174 1412.00000 0.00071
559 19.64003 1358.93536 1443.00000 0.00069
560 19.66629 1363.22800 1404.00000 0.00071
561 19.69255 1367.66086 1394.00000 0.00072
562 19.71881 1372.24881 1405.00000 0.00071
563 19.74507 1377.01161 1378.00000 0.00073
564 19.77133 1381.97583 1478.00000 0.00068
565 19.79759 1387.17757 1386.00000 0.00072
566 19.82385 1392.66666 1361.00000 0.00073
567 19.85011 1398.51321 1435.00000 0.00070
568 19.87637 1404.81824 1407.00000 0.00071
569 19.90263 1411.73237 1456.00000 0.00069
570 19.92889 1419.49209 1458.00000 0.00069
571 19.95515 1428.51258 1500.00000 0.00067
572 19.98141 1439.68068 1518.00000 0.00066
573 20.00767 1455.09619 1521.00000 0.00066
574 20.03393 1479.17319 1511.00000 0.00066
575 20.06019 1518.73108 1550.00000 0.00065
576 20.08646 1579.95272 1599.00000 0.00063
577 20.11272 1667.13819 1650.00000 0.00061
578 20.13898 1788.38615 1768.00000 0.00057
579 20.16524 1961.79306 1859.00000 0.00054
580 20.19150 2205.61369 2013.00000 0.00050
581 20.21776 2484.23943 2296.00000 0.00044
582 20.24402 2627.17243 2437.00000 0.00041
583 20.27028 2416.67256 2255.00000 0.00044
584 20.29654 2025.36242 1906.00000 0.00052
585 20.32280 1746.63081 1691.00000 0.00059
586 20.34906 1613.94023 1606.00000 0.00062
587 20.37532 1562.18705 1556.00000 0.00064
588 20.40158 1541.31174 1596.00000 0.00063
589 20.42784 1531.34470 1647.00000 0.00061
590 20.45410 1526.40812 1592.00000 0.00063
591 20.48036 1524.36665 1541.00000 0.00065
592 20.50662 1524.16806 1558.00000 0.00064
593 20.53288 1525.19730 1477.00000 0.00068
594 20.55915 1527.04734 1496.00000 0.00067
595 20.58541 1529.53739 1497.00000 0.00067
596 20.61167 1532.52478 1477.00000 0.00068
597 20.63793 1535.85150 1418.00000 0.00071
598 20.66419 1539.43858 1586.00000 0.00063
599 20.69045 1543.22964 1545.00000 0.00065
600 20.71671 1547.18403 1587.00000 0.00063
601 20.74297 1551.27252 1536.00000 0.00065
602 20.76923 1555.47442 1490.00000 0.00067
603 20.79549 1559.77577 1551.00000 0.00064
604 20.82175 1564.16821 1551.00000 0.00064
605 20.84801 1568.64833 1498.00000 0.00067
606 20.87427 1573.21748 1596.00000 0.00063
607 20.90053 1577.88193 1593.00000 0.00063
608 20.92679 1582.65339 1538.00000 0.00065
609 20.95305 1587.55007 1549.00000 0.00065
610 20.97931 1592.59821 1527.00000 0.00065
611 21.00557 1597.83457 1502.00000 0.00067
612 21.03184 1603.31006 1524.00000 0.00066
613 21.05810 1609.09530 1548.00000 0.00065
614 21.08436 1615.28923 1538.00000 0.00065
615 21.11062 1622.03277 1575.00000 0.00063
616 21.13688 1629.53130 1551.00000 0.00064
617 21.16314 1638.09450 1679.00000 0.00060
618 21.18940 1648.22055 1729.00000 0.00058
619 21.21566 1660.83335 1619.00000 0.00062
620 21.24192 1677.99777 1658.00000 0.00060
621 21.26818 1704.53739 1770.00000 0.00056
622 21.29444 1750.01210 1843.00000 0.00054
623 21.32070 1828.06028 1898.00000 0.00053
624 21.34696 1950.85173 1896.00000 0.00053
625 21.37322 2130.30451 2162.00000 0.00046
626 21.39948 2390.73754 2301.00000 0.00043
627 21.42574 2765.70744 2761.00000 0.00036
628 21.45200 3232.67378 3184.00000 0.00031
629 21.47827 3582.30948 3751.00000 0.00027
630 21.50453 3421.83007 3594.00000 0.00028
631 21.53079 2796.38579 2888.00000 0.00035
632 21.55705 2245.43224 2168.00000 0.00046
633 21.58331 1947.55592 1961.00000 0.00051
634 21.60957 1821.14502 1767.00000 0.00057
635 21.63583 1768.11599 1692.00000 0.00059
636 21.66209 1741.06466 1744.00000 0.00057
637 21.68835 1724.60500 1731.00000 0.00058
638 21.71461 1713.78257 1626.00000 0.00062
639 21.74087 1706.43816 1758.00000 0.00057
640 21.76713 1701.36462 1731.00000 0.00058
641 21.79339 1697.82573 1785.00000 0.00056
642 21.81965 1695.35095 1750.00000 0.00057
643 21.84591 1693.62849 1755.00000 0.00057
644 21.87217 1692.44527 1657.00000 0.00060
645 21.89843 1691.65177 1689.00000 0.00059
646 21.92469 1691.14015 1642.00000 0.00061
647 21.95096 1690.83078 1644.00000 0.00061
648 21.97722 1690.66471 1661.00000 0.00060
649 22.00348 1690.59711 1646.00000 0.00061
650 22.02974 1690.59323 1748.00000 0.00057
651 22.05600 1690.62545 1676.00000 0.00060
652 22.08226 1690.67069 1723.00000 0.00058
653 22.10852 1690.70621 1692.00000 0.00059
654 22.13478 1690.69603 1670.00000 0.00060
655 22.16104 1690.69482 1717.00000 0.00058
656 22.18730 1690.70711 1724.00000 0.00058
657 22.21356 1690.68428 1664.00000 0.00060
658 22.23982 1690.62100 1723.00000 0.00058
659 22.26608 1690.51305 1662.00000 0.00060
660 22.29234 1690.35710 1670.00000 0.00060
661 22.31860 1690.15059 1583.00000 0.00063
662 22.34486 1689.89157 1692.00000 0.00059
663 22.37112 1689.57868 1710.00000 0.00058
664 22.39738 1689.21102 1677.00000 0.00060
665 22.42365 1688.78794 1619.00000 0.00062
666 22.44991 1688.30880 1621.00000 0.00062
667 22.47617 1687.77400 1667.00000 0.00060
668 22.50243 1687.18590 1627.00000 0.00061
669 22.52869 1686.54636 1670.00000 0.00060
670 22.55495 1685.85806 1606.00000 0.00062
671 22.58121 1685.12660 1703.00000 0.00059
672 22.60747 1684.38593 1654.00000 0.00060
673 22.63373 1683.53785 1657.00000 0.00060
674 22.65999 1682.63490 1687.00000 0.00059
675 22.68625 1681.71208 1662.00000 0.00060
676 22.71251 1680.75176 1678.00000 0.00060
677 22.73877 1679.75812 1616.00000 0.00062
678 22.76503 1678.73607 1599.00000 0.00063
679 22.79129 1677.69142 1741.00000 0.00057
680 22.81755 1676.63118 1645.00000 0.00061
681 22.84381 1675.56373 1670.00000 0.00060
682 22.87008 1674.49932 1729.00000 0.00058
683 22.89634 1673.45072 1647.00000 0.00061
684 22.92260 1672.43529 1724.00000 0.00058
685 22.94886 1671.46883 1613.00000 0.00062
686 22.97512 1670.57910 1680.00000 0.00060
687 23.00138 1669.80144 1686.00000 0.00059
688 23.02764 1669.18292 1647.00000 0.00061
689 23.05390 1668.78908 1724.00000 0.00058
690 23.08016 1668.71393 1671.00000 0.00060
691 23.10642 1669.09742 1755.00000 0.00057
692 23.13268 1670.16209 1749.00000 0.00057
693 23.15894 1672.31346 1740.00000 0.00057
694 23.18520 1676.44229 1665.00000 0.00060
695 23.21146 1684.63459 1658.00000 0.00060
696 23.23772 1701.16806 1686.00000 0.00059
697 23.26398 1732.73043 1771.00000 0.00056
698 23.29024 1786.61974 1846.00000 0.00054
699 23.31650 1870.86031 1940.00000 0.00052
700 23.34277 1997.68521 1992.00000 0.00050
701 23.36903 2172.90632 2001.00000 0.00050
702 23.39529 2355.48072 2301.00000 0.00043
703 23.42155 2416.21264 2224.00000 0.00045
704 23.44781 2242.12689 2098.00000 0.00048
705 23.47407 1983.29321 1908.00000 0.00052
706 23.50033 1804.39881 1802.00000 0.00055
707 23.52659 1716.07111 1789.00000 0.00056
708 23.55285 1677.76151 1698.00000 0.00059
709 23.57911 1659.03076 1728.00000 0.00058
710 23.60537 1647.45937 1705.00000 0.00059
711 23.63163 1639.16431 1630.00000 0.00061
712 23.65789 1632.77364 1712.00000 0.00058
713 23.68415 1627.62133 1639.00000 0.00061
714 23.71041 1623.32180 1699.00000 0.00059
715 23.73667 1619.63704 1625.00000 0.00062
716 23.76293 1616.41521 1630.00000 0.00061
717 23.78919 1613.55742 1661.00000 0.00060
718 23.81546 1610.99887 1612.00000 0.00062
719 23.84172 1608.69764 1595.00000 0.00063
720 23.86798 1606.62796 1661.00000 0.00060
721 23.89424 1604.77616 1603.00000 0.00062
722 23.92050 1603.13824 1565.00000 0.00064
723 23.94676 1601.71866 1592.00000 0.00063
724 23.97302 1600.53010 1574.00000 0.00064
725 23.99928 1599.59533 1539.00000 0.00065
726 24.02554 1598.94648 1623.00000 0.00062
727 24.05180 1598.62824 1598.00000 0.00063
728 24.07806 1598.70419 1614.00000 0.00062
729 24.10432 1599.29306 1627.00000 0.00061
730 24.13058 1600.38456 1654.00000 0.00060
731 24.15684 1602.20071 1600.00000 0.00063
732 24.18310 1604.96067 1591.00000 0.00063
733 24.20936 1608.99165 1637.00000 0.00061
734 24.23562 1614.82097 1673.00000 0.00060
735 24.26188 1623.44070 1622.00000 0.00062
736 24.28815 1637.06863 1700.00000 0.00059
737 24.31441 1660.76800 1822.00000 0.00055
738 24.34067 1704.42690 1721.00000 0.00058
739 24.36693 1782.80289 1869.00000 0.00054
740 24.39319 1912.43512 1883.00000 0.00053
741 24.41945 2113.36400 2123.00000 0.00047
742 24.44571 2406.40592 2365.00000 0.00042
743 24.47197 2766.79311 2812.00000 0.00036
744 24.49823 3038.14177 3100.00000 0.00032
745 24.52449 2945.97538 3084.00000 0.00032
746 24.55075 2517.48999 2600.00000 0.00038
747 24.57701 2127.17159 2029.00000 0.00049
748 24.60327 1920.69189 1900.00000 0.00053
749 24.62953 1857.81666 1998.00000 0.00050
750 24.65579 1882.35502 1914.00000 0.00052
751 24.68205 1986.39221 2097.00000 0.00048
752 24.70831 2209.33690 2408.00000 0.00042
753 24.73458 2615.97700 2831.00000 0.00035
754 24.76084 3281.35712 3330.00000 0.00030
755 24.78710 4297.99679 4277.00000 0.00023
756 24.81336 5681.43676 5574.00000 0.00018
757 24.83962 7063.74751 7302.00000 0.00014
758 24.86588 7436.34555 7730.00000 0.00013
759 24.89214 6068.83217 6455.00000 0.00015
760 24.91840 4159.86407 4153.00000 0.00024
761 24.94466 2855.99465 2796.00000 0.00036
762 24.97092 2214.59141 2155.00000 0.00046
763 24.99718 1940.80241 1895.00000 0.00053
764 25.02344 1812.98586 1729.00000 0.00058
765 25.04970 1739.00076 1715.00000 0.00058
766 25.07596 1689.52463 1594.00000 0.00063
767 25.10222 1654.18635 1671.00000 0.00060
768 25.12848 1627.96471 1623.00000 0.00062
769 25.15474 1607.92999 1565.00000 0.00064
770 25.18100 1592.24529 1565.00000 0.00064
771 25.20727 1579.71056 1557.00000 0.00064
772 25.23353 1569.51552 1595.00000 0.00063
773 25.25979 1561.09722 1561.00000 0.00064
774 25.28605 1554.05441 1529.00000 0.00065
775 25.31231 1548.09565 1622.00000 0.00062
776 25.33857 1543.00453 1440.00000 0.00069
777 25.36483 1538.61775 1557.00000 0.00064
778 25.39109 1534.81018 1572.00000 0.00064
779 25.41735 1531.48466 1474.00000 0.00068
780 25.44361 1528.56477 1537.00000 0.00065
781 25.46987 1525.98981 1575.00000 0.00063
782 25.49613 1523.71104 1515.00000 0.00066
783 25.52239 1521.68905 1460.00000 0.00068
784 25.54865 1519.89174 1522.00000 0.00066
785 25.57491 1518.29286 1507.00000 0.00066
786 25.60117 1516.87087 1547.00000 0.00065
787 25.62743 1515.60814 1499.00000 0.00067
788 25.65369 1514.48954 1479.00000 0.00068
789 25.67996 1513.50259 1597.00000 0.00063
790 25.70622 1512.63792 1528.00000 0.00065
791 25.73248 1511.88828 1510.00000 0.00066
792 25.75874 1511.24820 1530.00000 0.00065
793 25.78500 1510.71266 1460.00000 0.00068
794 25.81126 1510.26408 1499.00000 0.00067
795 25.83752 1509.93748 1505.00000 0.00066
796 25.86378 1509.79701 1465.00000 0.00068
797 25.89004 1509.81018 1577.00000 0.00063
798 25.91630 1510.00899 1587.00000 0.00063
799 25.94256 1510.44528 1569.00000 0.00064
800 25.96882 1511.20863 1486.00000 0.00067
801 25.99508 1512.47873 1473.00000 0.00068
802 26.02134 1514.67402 1587.00000 0.00063
803 26.04760 1518.76296 1519.00000 0.00066
804 26.07386 1526.66099 1536.00000 0.00065
805 26.10012 1541.35047 1531.00000 0.00065
806 26.12639 1566.44180 1590.00000 0.00063
807 26.15265 1605.79050 1605.00000 0.00062
808 26.17891 1660.26679 1595.00000 0.00063
809 26.20517 1716.86043 1669.00000 0.00060
810 26.23143 1738.20686 1697.00000 0.00059
811 26.25769 1691.33092 1654.00000 0.00060
812 26.28395 1616.24874 1545.00000 0.00065
813 26.31021 1561.75503 1513.00000 0.00066
814 26.33647 1533.89651 1503.00000 0.00067
815 26.36273 1521.92639 1542.00000 0.00065
816 26.38899 1516.57754 1568.00000 0.00064
817 26.41525 1513.68773 1529.00000 0.00065
818 26.44151 1511.88488 1588.00000 0.00063
819 26.46777 1510.70500 1482.00000 0.00067
820 26.49403 1509.93765 1548.00000 0.00065
821 26.52029 1509.46539 1494.00000 0.00067
822 26.54655 1509.21841 1478.00000 0.00068
823 26.57281 1509.15533 1558.00000 0.00064
824 26.59908 1509.25324 1546.00000 0.00065
825 26.62534 1509.50228 1530.00000 0.00065
826 26.65160 1509.90289 1482.00000 0.00067
827 26.67786 1510.46473 1503.00000 0.00067
828 26.70412 1511.20670 1537.00000 0.00065
829 26.73038 1512.15824 1493.00000 0.00067
830 26.75664 1513.36165 1526.00000 0.00066
831 26.78290 1514.87615 1523.00000 0.00066
832 26.80916 1516.78411 1505.00000 0.00066
833 26.83542 1519.20088 1471.00000 0.00068
834 26.86168 1522.29040 1477.00000 0.00068
835 26.88794 1526.29062 1549.00000 0.00065
836 26.91420 1531.55748 1504.00000 0.00066
837 26.94046 1538.65164 1510.00000 0.00066
838 26.96672 1548.55994 1561.00000 0.00064
839 26.99298 1563.35777 1574.00000 0.00064
840 27.01924 1587.94202 1613.00000 0.00062
841 27.04550 1633.23484 1711.00000 0.00058
842 27.07177 1719.66581 1863.00000 0.00054
843 27.09803 1877.30400 1898.00000 0.00053
844 27.12429 2140.62467 2134.00000 0.00047
845 27.15055 2534.66725 2520.00000 0.00040
846 27.17681 3016.58293 3001.00000 0.00033
847 27.20307 3375.93861 3536.00000 0.00028
848 27.22933 3261.79898 3486.00000 0.00029
849 27.25559 2697.53569 2795.00000 0.00036
850 27.28185 2150.92535 2132.00000 0.00047
851 27.30811 1823.98692 1832.00000 0.00055
852 27.33437 1672.32394 1680.00000 0.00060
853 27.36063 1607.47743 1582.00000 0.00063
854 27.38689 1576.92174 1576.00000 0.00063
855 27.41315 1561.63901 1593.00000 0.00063
856 27.43941 1556.50978 1536.00000 0.00065
857 27.46567 1560.19676 1531.00000 0.00065
858 27.49193 1570.58447 1542.00000 0.00065
859 27.51820 1580.26017 1571.00000 0.00064
860 27.54446 1575.15672 1550.00000 0.00065
861 27.57072 1550.65114 1577.00000 0.00063
862 27.59698 1523.76661 1486.00000 0.00067
863 27.62324 1505.44147 1478.00000 0.00068
864 27.64950 1495.10117 1544.00000 0.00065
865 27.67576 1489.12191 1429.00000 0.00070
866 27.70202 1484.97662 1464.00000 0.00068
867 27.72828 1481.60852 1424.00000 0.00070
868 27.75454 1478.65515 1433.00000 0.00070
869 27.78080 1475.97018 1496.00000 0.00067
870 27.80706 1473.47304 1440.00000 0.00069
871 27.83332 1471.10873 1464.00000 0.00068
872 27.85958 1468.83538 1468.00000 0.00068
873 27.88584 1466.67358 1428.00000 0.00070
874 27.91210 1464.57628 1499.00000 0.00067
875 27.93836 1462.53127 1369.00000 0.00073
876 27.96462 1460.52998 1474.00000 0.00068
877 27.99089 1458.56665 1425.00000 0.00070
878 28.01715 1456.63780 1462.00000 0.00068
879 28.04341 1454.74194 1446.00000 0.00069
880 28.06967 1452.87935 1487.00000 0.00067
881 28.09593 1451.05210 1450.00000 0.00069
882 28.12219 1449.26402 1454.00000 0.00069
883 28.14845 1447.52093 1448.00000 0.00069
884 28.17471 1445.83089 1490.00000 0.00067
885 28.20097 1444.20460 1454.00000 0.00069
886 28.22723 1442.65605 1423.00000 0.00070
887 28.25349 1441.20333 1456.00000 0.00069
888 28.27975 1439.86991 1493.00000 0.00067
889 28.30601 1438.68632 1509.00000 0.00066
890 28.33227 1437.69305 1485.00000 0.00067
891 28.35853 1436.94548 1374.00000 0.00073
892 28.38479 1436.51736 1448.00000 0.00069
893 28.41105 1436.51256 1356.00000 0.00074
894 28.43731 1437.09616 1432.00000 0.00070
895 28.46358 1438.38127 1446.00000 0.00069
896 28.48984 1440.71622 1533.00000 0.00065
897 28.51610 1444.56613 1446.00000 0.00069
898 28.54236 1450.74178 1422.00000 0.00070
899 28.56862 1460.92890 1461.00000 0.00068
900 28.59488 1479.10844 1506.00000 0.00066
901 28.62114 1514.36413 1536.00000 0.00065
902 28.64740 1584.50277 1592.00000 0.00063
903 28.67366 1717.48053 1745.00000 0.00057
904 28.69992 1945.07065 1947.00000 0.00051
905 28.72618 2282.00938 2273.00000 0.00044
906 28.75244 2671.18572 2599.00000 0.00038
907 28.77870 2912.89903 2911.00000 0.00034
908 28.80496 2742.81429 2822.00000 0.00035
909 28.83122 2272.34102 2321.00000 0.00043
910 28.85748 1860.63062 1789.00000 0.00056
911 28.88374 1622.48527 1571.00000 0.00064
912 28.91001 1511.96503 1463.00000 0.00068
913 28.93627 1462.36209 1447.00000 0.00069
914 28.96253 1436.01933 1465.00000 0.00068
915 28.98879 1418.96124 1418.00000 0.00071
916 29.01505 1406.67509 1429.00000 0.00070
917 29.04131 1397.40448 1433.00000 0.00070
918 29.06757 1390.16893 1370.00000 0.00073
919 29.09383 1384.40930 1428.00000 0.00070
920 29.12009 1379.78180 1361.00000 0.00073
921 29.14635 1376.07616 1272.00000 0.00079
922 29.17261 1373.17221 1344.00000 0.00074
923 29.19887 1371.01663 1323.00000 0.00076
924 29.22513 1369.58886 1346.00000 0.00074
925 29.25139 1368.93870 1338.00000 0.00075
926 29.27765 1369.16144 1462.00000 0.00068
927 29.30391 1370.41428 1308.00000 0.00076
928 29.33017 1372.93355 1375.00000 0.00073
929 29.35643 1377.05161 1326.00000 0.00075
930 29.38270 1383.29195 1297.00000 0.00077
931 29.40896 1392.80814 1383.00000 0.00072
932 29.43522 1406.79608 1451.00000 0.00069
933 29.46148 1427.77696 1450.00000 0.00069
934 29.48774 1461.42496 1452.00000 0.00069
935 29.51400 1521.49116 1599.00000 0.00063
936 29.54026 1638.11398 1782.00000 0.00056
937 29.56652 1867.11739 1950.00000 0.00051
938 29.59278 2287.86039 2394.00000 0.00042
939 29.61904 2969.24356 2956.00000 0.00034
940 29.64530 3878.55114 3821.00000 0.00026
941 29.67156 4718.31924 4830.00000 0.00021
942 29.69782 4859.88588 5058.00000 0.00020
943 29.72408 3999.98187 4142.00000 0.00024
944 29.75034 2883.54231 2872.00000 0.00035
945 29.77660 2109.51436 2075.00000 0.00048
946 29.80286 1712.61025 1719.00000 0.00058
947 29.82912 1536.71597 1551.00000 0.00064
948 29.85539 1454.22026 1514.00000 0.00066
949 29.88165 1407.28677 1411.00000 0.00071
950 29.90791 1376.47241 1339.00000 0.00075
951 29.93417 1355.00837 1300.00000 0.00077
952 29.96043 1339.27657 1341.00000 0.00075
953 29.98669 1326.14016 1329.00000 0.00075
954 30.01295 1313.19774 1345.00000 0.00074
955 30.03921 1300.94138 1277.00000 0.00078
956 30.06547 1290.73287 1233.00000 0.00081
957 30.09173 1282.61946 1313.00000 0.00076
958 30.11799 1276.03160 1201.00000 0.00083
959 30.14425 1270.43316 1243.00000 0.00080
960 30.17051 1265.50574 1229.00000 0.00081
961 30.19677 1261.08297 1226.00000 0.00082
962 30.22303 1257.06696 1246.00000 0.00080
963 30.24929 1253.39016 1248.00000 0.00080
964 30.27555 1250.00228 1210.00000 0.00083
965 30.30181 1246.86486 1225.00000 0.00082
966 30.32808 1243.94864 1219.00000 0.00082
967 30.35434 1241.23195 1228.00000 0.00081
968 30.38060 1238.69857 1269.00000 0.00079
969 30.40686 1236.34232 1245.00000 0.00080
970 30.43312 1234.14511 1254.00000 0.00080
971 30.45938 1232.07812 1228.00000 0.00081
972 30.48564 1230.15591 1164.00000 0.00086
973 30.51190 1228.37671 1266.00000 0.00079
974 30.53816 1226.74130 1216.00000 0.00082
975 30.56442 1225.25321 1245.00000 0.00080
976 30.59068 1223.91896 1221.00000 0.00082
977 30.61694 1222.74865 1175.00000 0.00085
978 30.64320 1221.75675 1235.00000 0.00081
979 30.66946 1220.96327 1241.00000 0.00081
980 30.69572 1220.39535 1221.00000 0.00082
981 30.72198 1220.09017 1209.00000 0.00083
982 30.74824 1220.09869 1234.00000 0.00081
983 30.77451 1220.49139 1263.00000 0.00079
984 30.80077 1221.36626 1283.00000 0.00078
985 30.82703 1222.86917 1255.00000 0.00080
986 30.85329 1225.22197 1184.00000 0.00084
987 30.87955 1228.74812 1241.00000 0.00081
988 30.90581 1234.00754 1228.00000 0.00081
989 30.93207 1242.11839 1274.00000 0.00078
990 30.95833 1255.69265 1332.00000 0.00075
991 30.98459 1280.94624 1323.00000 0.00076
992 31.01085 1331.09231 1402.00000 0.00071
993 31.03711 1429.09555 1479.00000 0.00068
994 31.06337 1602.60631 1650.00000 0.00061
995 31.08963 1861.56588 1979.00000 0.00051
996 31.11589 2155.42767 2262.00000 0.00044
997 31.14215 2330.10211 2507.00000 0.00040
998 31.16841 2201.32826 2282.00000 0.00044
999 31.19467 1861.00051 1934.00000 0.00052
1000 31.22093 1560.84816 1598.00000 0.00063
1001 31.24720 1383.91383 1387.00000 0.00072
1002 31.27346 1300.68425 1300.00000 0.00077
1003 31.29972 1263.98241 1245.00000 0.00080
1004 31.32598 1245.62585 1278.00000 0.00078
1005 31.35224 1234.62409 1222.00000 0.00082
1006 31.37850 1227.34711 1310.00000 0.00076
1007 31.40476 1222.39975 1292.00000 0.00077
1008 31.43102 1219.07548 1295.00000 0.00077
1009 31.45728 1216.96218 1277.00000 0.00078
1010 31.48354 1215.81289 1252.00000 0.00080
1011 31.50980 1215.48575 1159.00000 0.00086
1012 31.53606 1215.91267 1141.00000 0.00088
1013 31.56232 1217.08408 1225.00000 0.00082
1014 31.58858 1219.04417 1222.00000 0.00082
1015 31.61484 1221.89510 1218.00000 0.00082
1016 31.64110 1225.81062 1287.00000 0.00078
1017 31.66736 1231.06272 1271.00000 0.00079
1018 31.69362 1238.06925 1178.00000 0.00085
1019 31.71989 1247.48202 1294.00000 0.00077
1020 31.74615 1260.38423 1261.00000 0.00079
1021 31.77241 1278.85211 1353.00000 0.00074
1022 31.79867 1307.61082 1320.00000 0.00076
1023 31.82493 1358.12908 1470.00000 0.00068
1024 31.85119 1456.06430 1540.00000 0.00065
1025 31.87745 1649.68099 1670.00000 0.00060
1026 31.90371 2003.95077 1966.00000 0.00051
1027 31.92997 2555.69940 2514.00000 0.00040
1028 31.95623 3222.31335 3057.00000 0.00033
1029 31.98249 3701.23680 3796.00000 0.00026
1030 32.00875 3555.36510 3731.00000 0.00027
1031 32.03501 2842.99003 3042.00000 0.00033
1032 32.06127 2130.25108 2110.00000 0.00047
1033 32.08753 1680.32920 1643.00000 0.00061
1034 32.11379 1459.41037 1462.00000 0.00068
1035 32.14005 1361.72920 1355.00000 0.00074
1036 32.16632 1314.55430 1310.00000 0.00076
1037 32.19258 1286.99852 1302.00000 0.00077
1038 32.21884 1268.63106 1322.00000 0.00076
1039 32.24510 1255.63616 1246.00000 0.00080
1040 32.27136 1246.16308 1232.00000 0.00081
1041 32.29762 1239.12337 1208.00000 0.00083
1042 32.32388 1233.80866 1218.00000 0.00082
1043 32.35014 1229.76146 1218.00000 0.00082
1044 32.37640 1226.66570 1190.00000 0.00084
1045 32.40266 1224.29899 1208.00000 0.00083
1046 32.42892 1222.50165 1268.00000 0.00079
1047 32.45518 1221.15683 1121.00000 0.00089
1048 32.48144 1220.17755 1136.00000 0.00088
1049 32.50770 1219.49817 1168.00000 0.00086
1050 32.53396 1219.06862 1273.00000 0.00079
1051 32.56022 1218.85037 1241.00000 0.00081
1052 32.58648 1218.81368 1205.00000 0.00083
1053 32.61274 1218.93562 1204.00000 0.00083
1054 32.63901 1219.19867 1167.00000 0.00086
1055 32.66527 1219.58978 1191.00000 0.00084
1056 32.69153 1220.09967 1217.00000 0.00082
1057 32.71779 1220.72247 1223.00000 0.00082
1058 32.74405 1221.45548 1179.00000 0.00085
1059 32.77031 1222.29916 1178.00000 0.00085
1060 32.79657 1223.25734 1165.00000 0.00086
1061 32.82283 1224.33766 1172.00000 0.00085
1062 32.84909 1225.55224 1222.00000 0.00082
1063 32.87535 1226.91879 1166.00000 0.00086
1064 32.90161 1228.46312 1253.00000 0.00080
1065 32.92787 1230.22317 1207.00000 0.00083
1066 32.95413 1232.25123 1172.00000 0.00085
1067 32.98039 1234.64691 1204.00000 0.00083
1068 33.00665 1237.41157 1254.00000 0.00080
1069 33.03291 1240.72499 1214.00000 0.00082
1070 33.05917 1244.78893 1250.00000 0.00080
1071 33.08543 1249.90261 1261.00000 0.00079
1072 33.11170 1256.55186 1254.00000 0.00080
1073 33.13796 1265.64070 1260.00000 0.00079
1074 33.16422 1279.18756 1263.00000 0.00079
1075 33.19048 1302.13823 1342.00000 0.00075
1076 33.21674 1345.93083 1352.00000 0.00074
1077 33.24300 1432.86694 1417.00000 0.00071
1078 33.26926 1594.47651 1564.00000 0.00064
1079 33.29552 1849.61180 1779.00000 0.00056
1080 33.32178 2160.10311 2139.00000 0.00047
1081 33.34804 2386.83783 2351.00000 0.00043
1082 33.37430 2330.08976 2394.00000 0.00042
1083 33.40056 2009.84663 2132.00000 0.00047
1084 33.42682 1680.60921 1660.00000 0.00060
1085 33.45308 1468.09399 1529.00000 0.00065
1086 33.47934 1361.76995 1278.00000 0.00078
1087 33.50560 1314.51570 1265.00000 0.00079
1088 33.53186 1292.17652 1308.00000 0.00076
1089 33.55813 1279.52329 1230.00000 0.00081
1090 33.58439 1271.32417 1267.00000 0.00079
1091 33.61065 1265.70060 1341.00000 0.00075
1092 33.63691 1261.77117 1245.00000 0.00080
1093 33.66317 1259.02697 1216.00000 0.00082
1094 33.68943 1257.14979 1333.00000 0.00075
1095 33.71569 1255.93541 1233.00000 0.00081
1096 33.74195 1255.25272 1238.00000 0.00081
1097 33.76821 1255.02061 1267.00000 0.00079
1098 33.79447 1255.19496 1312.00000 0.00076
1099 33.82073 1255.76223 1248.00000 0.00080
1100 33.84699 1256.73806 1225.00000 0.00082
1101 33.87325 1258.17090 1233.00000 0.00081
1102 33.89951 1260.15379 1246.00000 0.00080
1103 33.92577 1262.85680 1257.00000 0.00080
1104 33.95203 1266.62548 1226.00000 0.00082
1105 33.97829 1272.25740 1289.00000 0.00078
1106 34.00455 1281.62060 1171.00000 0.00085
1107 34.03082 1298.61317 1314.00000 0.00076
1108 34.05708 1329.59571 1362.00000 0.00073
1109 34.08334 1380.55689 1300.00000 0.00077
1110 34.10960 1448.97591 1342.00000 0.00075
1111 34.13586 1513.91882 1418.00000 0.00071
1112 34.16212 1535.59736 1426.00000 0.00070
1113 34.18838 1497.87055 1407.00000 0.00071
1114 34.21464 1448.91786 1431.00000 0.00070
1115 34.24090 1434.48815 1505.00000 0.00066
1116 34.26716 1477.74462 1549.00000 0.00065
1117 34.29342 1608.91361 1717.00000 0.00058
1118 34.31968 1882.26941 1958.00000 0.00051
1119 34.34594 2349.27810 2359.00000 0.00042
1120 34.37220 2974.01036 3008.00000 0.00033
1121 34.39846 3533.51619 3679.00000 0.00027
1122 34.42472 3618.20565 3796.00000 0.00026
1123 34.45098 3071.09391 3249.00000 0.00031
1124 34.47724 2351.93874 2424.00000 0.00041
1125 34.50351 1831.27851 1883.00000 0.00053
1126 34.52977 1549.74748 1569.00000 0.00064
1127 34.55603 1420.03377 1430.00000 0.00070
1128 34.58229 1359.55460 1344.00000 0.00074
1129 34.60855 1326.15852 1347.00000 0.00074
1130 34.63481 1304.31181 1392.00000 0.00072
1131 34.66107 1288.66610 1344.00000 0.00074
1132 34.68733 1276.93801 1321.00000 0.00076
1133 34.71359 1267.86892 1236.00000 0.00081
1134 34.73985 1260.67443 1259.00000 0.00079
1135 34.76611 1254.83999 1292.00000 0.00077
1136 34.79237 1250.01534 1294.00000 0.00077
1137 34.81863 1245.96088 1329.00000 0.00075
1138 34.84489 1242.50642 1329.00000 0.00075
1139 34.87115 1239.53031 1369.00000 0.00073
1140 34.89741 1236.94518 1346.00000 0.00074
1141 34.92367 1234.68875 1299.00000 0.00077
1142 34.94993 1232.71796 1247.00000 0.00080
1143 34.97620 1231.00525 1245.00000 0.00080
1144 35.00246 1229.53666 1278.00000 0.00078
1145 35.02872 1228.31120 1342.00000 0.00075
1146 35.05498 1227.34178 1304.00000 0.00077
1147 35.08124 1226.65774 1280.00000 0.00078
1148 35.10750 1226.30986 1296.00000 0.00077
1149 35.13376 1226.37898 1246.00000 0.00080
1150 35.16002 1226.99127 1245.00000 0.00080
1151 35.18628 1228.34714 1234.00000 0.00081
1152 35.21254 1230.78944 1246.00000 0.00080
1153 35.23880 1235.00387 1312.00000 0.00076
1154 35.26506 1242.61524 1280.00000 0.00078
1155 35.29132 1257.65773 1346.00000 0.00074
1156 35.31758 1289.18348 1418.00000 0.00071
1157 35.34384 1353.36855 1366.00000 0.00073
1158 35.37010 1468.35261 1497.00000 0.00067
1159 35.39636 1633.55763 1584.00000 0.00063
1160 35.42263 1801.25301 1846.00000 0.00054
1161 35.44889 1866.34686 1949.00000 0.00051
1162 35.47515 1752.09008 1763.00000 0.00057
1163 35.50141 1553.30234 1628.00000 0.00061
1164 35.52767 1392.25197 1336.00000 0.00075
1165 35.55393 1298.48844 1352.00000 0.00074
1166 35.58019 1253.37195 1265.00000 0.00079
1167 35.60645 1232.48657 1269.00000 0.00079
1168 35.63271 1221.45749 1234.00000 0.00081
1169 35.65897 1214.54158 1229.00000 0.00081
1170 35.68523 1209.79055 1227.00000 0.00081
1171 35.71149 1206.46708 1250.00000 0.00080
1172 35.73775 1204.22168 1222.00000 0.00082
1173 35.76401 1202.87783 1211.00000 0.00083
1174 35.79027 1202.36642 1186.00000 0.00084
1175 35.81653 1202.70229 1203.00000 0.00083
1176 35.84279 1203.97401 1218.00000 0.00082
1177 35.86905 1206.34906 1157.00000 0.00086
1178 35.89532 1210.12497 1236.00000 0.00081
1179 35.92158 1215.76116 1161.00000 0.00086
1180 35.94784 1223.99427 1232.00000 0.00081
1181 35.97410 1236.10427 1215.00000 0.00082
1182 36.00036 1254.76787 1272.00000 0.00079
1183 36.02662 1286.49629 1370.00000 0.00073
1184 36.05288 1347.29945 1365.00000 0.00073
1185 36.07914 1472.25881 1463.00000 0.00068
1186 36.10540 1720.41044 1566.00000 0.00064
1187 36.13166 2148.01532 1897.00000 0.00053
1188 36.15792 2727.53119 2310.00000 0.00043
1189 36.18418 3255.26810 2890.00000 0.00035
1190 36.21044 3357.13033 3055.00000 0.00033
1191 36.23670 2878.05282 2580.00000 0.00039
1192 36.26296 2219.51582 1956.00000 0.00051
1193 36.28922 1727.36763 1531.00000 0.00065
1194 36.31548 1453.06504 1378.00000 0.00073
1195 36.34174 1323.76445 1247.00000 0.00080
1196 36.36801 1263.41324 1310.00000 0.00076
1197 36.39427 1230.70342 1214.00000 0.00082
1198 36.42053 1209.60219 1203.00000 0.00083
1199 36.44679 1194.29554 1190.00000 0.00084
1200 36.47305 1182.18607 1154.00000 0.00087
1201 36.49931 1172.09587 1156.00000 0.00087
1202 36.52557 1163.84396 1222.00000 0.00082
1203 36.55183 1157.12712 1122.00000 0.00089
1204 36.57809 1151.57710 1154.00000 0.00087
1205 36.60435 1146.87481 1111.00000 0.00090
1206 36.63061 1142.80108 1196.00000 0.00084
1207 36.65687 1139.22326 1115.00000 0.00090
1208 36.68313 1136.07843 1131.00000 0.00088
1209 36.70939 1133.13817 1122.00000 0.00089
1210 36.73565 1130.44680 1095.00000 0.00091
1211 36.76191 1127.96396 1093.00000 0.00091
1212 36.78817 1125.65514 1136.00000 0.00088
1213 36.81444 1123.49312 1122.00000 0.00089
1214 36.84070 1121.45354 1093.00000 0.00091
1215 36.86696 1119.49228 1163.00000 0.00086
1216 36.89322 1117.64189 1150.00000 0.00087
1217 36.91948 1115.95880 1124.00000 0.00089
1218 36.94574 1114.37120 1121.00000 0.00089
1219 36.97200 1112.87581 1129.00000 0.00089
1220 36.99826 1111.47176 1210.00000 0.00083
1221 37.02452 1110.16079 1141.00000 0.00088
1222 37.05078 1108.94778 1093.00000 0.00091
1223 37.07704 1107.84158 1059.00000 0.00094
1224 37.10330 1106.85653 1111.00000 0.00090
1225 37.12956 1106.01491 1115.00000 0.00090
1226 37.15582 1105.35122 1136.00000 0.00088
1227 37.18208 1104.92072 1106.00000 0.00090
1228 37.20834 1104.82088 1187.00000 0.00084
1229 37.23460 1105.25684 1185.00000 0.00084
1230 37.26086 1106.73264 1158.00000 0.00086
1231 37.28713 1110.49817 1158.00000 0.00086
1232 37.31339 1119.24180 1101.00000 0.00091
1233 37.33965 1137.29498 1186.00000 0.00084
1234 37.36591 1168.27674 1230.00000 0.00081
1235 37.39217 1208.91481 1201.00000 0.00083
1236 37.41843 1242.90638 1223.00000 0.00082
1237 37.44469 1243.92036 1325.00000 0.00075
1238 37.47095 1206.72315 1157.00000 0.00086
1239 37.49721 1161.30029 1153.00000 0.00087
1240 37.52347 1128.47532 1173.00000 0.00085
1241 37.54973 1110.36638 1176.00000 0.00085
1242 37.57599 1101.77296 1119.00000 0.00089
1243 37.60225 1097.70191 1089.00000 0.00092
1244 37.62851 1095.52311 1103.00000 0.00091
1245 37.65477 1094.24285 1142.00000 0.00088
1246 37.68103 1093.53242 1121.00000 0.00089
1247 37.70729 1093.27705 1107.00000 0.00090
1248 37.73355 1093.44088 1127.00000 0.00089
1249 37.75982 1094.03365 1123.00000 0.00089
1250 37.78608 1095.10399 1116.00000 0.00090
1251 37.81234 1096.74287 1110.00000 0.00090
1252 37.83860 1099.09586 1109.00000 0.00090
1253 37.86486 1102.38714 1138.00000 0.00088
1254 37.89112 1106.96526 1108.00000 0.00090
1255 37.91738 1113.40573 1047.00000 0.00096
1256 37.94364 1122.80295 1143.00000 0.00087
1257 37.96990 1137.67459 1188.00000 0.00084
1258 37.99616 1164.40164 1238.00000 0.00081
1259 38.02242 1218.07616 1241.00000 0.00081
1260 38.04868 1327.54775 1337.00000 0.00075
1261 38.07494 1529.36938 1645.00000 0.00061
1262 38.10120 1832.39972 1799.00000 0.00056
1263 38.12746 2161.51530 2151.00000 0.00046
1264 38.15372 2331.83265 2515.00000 0.00040
1265 38.17998 2174.36485 2291.00000 0.00044
1266 38.20625 1816.58170 1798.00000 0.00056
1267 38.23251 1497.35738 1425.00000 0.00070
1268 38.25877 1298.61739 1257.00000 0.00080
1269 38.28503 1198.67298 1262.00000 0.00079
1270 38.31129 1152.61912 1201.00000 0.00083
1271 38.33755 1129.62984 1183.00000 0.00085
1272 38.36381 1115.96092 1135.00000 0.00088
1273 38.39007 1106.67183 1112.00000 0.00090
1274 38.41633 1099.93290 1043.00000 0.00096
1275 38.44259 1094.88133 1039.00000 0.00096
1276 38.46885 1091.01852 1131.00000 0.00088
1277 38.49511 1088.02116 1029.00000 0.00097
1278 38.52137 1085.66931 1103.00000 0.00091
1279 38.54763 1083.81018 1038.00000 0.00096
1280 38.57389 1082.33627 1134.00000 0.00088
1281 38.60015 1081.17100 1103.00000 0.00091
1282 38.62641 1080.25914 1013.00000 0.00099
1283 38.65267 1079.56053 1063.00000 0.00094
1284 38.67894 1079.04604 1132.00000 0.00088
1285 38.70520 1078.69495 1053.00000 0.00095
1286 38.73146 1078.49318 1117.00000 0.00090
1287 38.75772 1078.43222 1073.00000 0.00093
1288 38.78398 1078.50860 1103.00000 0.00091
1289 38.81024 1078.72364 1068.00000 0.00094
1290 38.83650 1079.08377 1032.00000 0.00097
1291 38.86276 1079.60111 1054.00000 0.00095
1292 38.88902 1080.29479 1126.00000 0.00089
1293 38.91528 1081.19282 1032.00000 0.00097
1294 38.94154 1082.33520 1115.00000 0.00090
1295 38.96780 1083.77865 1051.00000 0.00095
1296 38.99406 1085.60396 1114.00000 0.00090
1297 39.02032 1087.92783 1094.00000 0.00091
1298 39.04658 1090.92249 1162.00000 0.00086
1299 39.07284 1094.85125 1127.00000 0.00089
1300 39.09910 1100.15018 1166.00000 0.00086
1301 39.12536 1107.66309 1167.00000 0.00086
1302 39.15163 1119.36444 1160.00000 0.00086
1303 39.17789 1140.31012 1211.00000 0.00083
1304 39.20415 1182.21275 1275.00000 0.00078
1305 39.23041 1266.63931 1346.00000 0.00074
1306 39.25667 1418.72581 1541.00000 0.00065
1307 39.28293 1639.44778 1820.00000 0.00055
1308 39.30919 1866.05135 1974.00000 0.00051
1309 39.33545 1961.78381 2133.00000 0.00047
1310 39.36171 1827.13893 2069.00000 0.00048
1311 39.38797 1574.33800 1656.00000 0.00060
1312 39.41423 1359.14190 1395.00000 0.00072
1313 39.44049 1227.74026 1261.00000 0.00079
1314 39.46675 1162.22331 1181.00000 0.00085
1315 39.49301 1132.02912 1195.00000 0.00084
1316 39.51927 1116.90992 1133.00000 0.00088
1317 39.54553 1107.93636 1146.00000 0.00087
1318 39.57179 1101.90382 1141.00000 0.00088
1319 39.59805 1097.60637 1089.00000 0.00092
1320 39.62432 1094.46301 1132.00000 0.00088
1321 39.65058 1092.13144 1084.00000 0.00092
1322 39.67684 1090.39246 1155.00000 0.00087
1323 39.70310 1089.10182 1064.00000 0.00094
1324 39.72936 1088.16243 1099.00000 0.00091
1325 39.75562 1087.51356 1085.00000 0.00092
1326 39.78188 1087.12224 1084.00000 0.00092
1327 39.80814 1086.98604 1165.00000 0.00086
1328 39.83440 1087.15683 1065.00000 0.00094
1329 39.86066 1087.81844 1071.00000 0.00093
1330 39.88692 1089.46339 989.00000 0.00101
1331 39.91318 1093.12833 1066.00000 0.00094
1332 39.93944 1100.33052 1088.00000 0.00092
1333 39.96570 1111.97240 1085.00000 0.00092
1334 39.99196 1126.04074 1117.00000 0.00090
1335 40.01822 1135.91093 1193.00000 0.00084
1336 40.04448 1133.28942 1035.00000 0.00097
1337 40.07075 1119.77042 1067.00000 0.00094
1338 40.09701 1105.51514 1092.00000 0.00092
1339 40.12327 1095.78188 1089.00000 0.00092
1340 40.14953 1090.59514 1075.00000 0.00093
1341 40.17579 1088.21381 1028.00000 0.00097
1342 40.20205 1087.13641 1087.00000 0.00092
1343 40.22831 1086.59291 1043.00000 0.00096
1344 40.25457 1086.28735 1098.00000 0.00091
1345 40.28083 1086.11326 1016.00000 0.00098
1346 40.30709 1086.02455 979.00000 0.00102
1347 40.33335 1085.99575 1096.00000 0.00091
1348 40.35961 1086.01086 1060.00000 0.00094
1349 40.38587 1086.05938 1056.00000 0.00095
1350 40.41213 1086.13410 1022.00000 0.00098
1351 40.43839 1086.22905 1028.00000 0.00097
1352 40.46465 1086.33991 1056.00000 0.00095
1353 40.49091 1086.46082 1059.00000 0.00094
1354 40.51717 1086.58383 1035.00000 0.00097
1355 40.54344 1086.74887 984.00000 0.00102
1356 40.56970 1086.93091 1060.00000 0.00094
1357 40.59596 1087.13154 1029.00000 0.00097
1358 40.62222 1087.35392 1025.00000 0.00098
1359 40.64848 1087.60394 1028.00000 0.00097
1360 40.67474 1087.89870 1066.00000 0.00094
1361 40.70100 1088.21039 1068.00000 0.00094
1362 40.72726 1088.56398 1024.00000 0.00098
1363 40.75352 1088.97128 1034.00000 0.00097
1364 40.77978 1089.44649 1079.00000 0.00093
1365 40.80604 1090.00892 1030.00000 0.00097
1366 40.83230 1090.68533 1095.00000 0.00091
1367 40.85856 1091.51369 1052.00000 0.00095
1368 40.88482 1092.54958 1009.00000 0.00099
1369 40.91108 1093.87876 1042.00000 0.00096
1370 40.93734 1095.64904 1062.00000 0.00094
1371 40.96360 1098.16903 1102.00000 0.00091
1372 40.98986 1102.20252 1086.00000 0.00092
1373 41.01613 1109.66039 1046.00000 0.00096
1374 41.04239 1124.62227 1065.00000 0.00094
1375 41.06865 1153.44289 1117.00000 0.00090
1376 41.09491 1200.99056 1130.00000 0.00088
1377 41.12117 1261.44097 1222.00000 0.00082
1378 41.14743 1309.78441 1216.00000 0.00082
1379 41.17369 1309.46332 1252.00000 0.00080
1380 41.19995 1257.73170 1213.00000 0.00082
1381 41.22621 1195.94505 1157.00000 0.00086
1382 41.25247 1151.27715 1132.00000 0.00088
1383 41.27873 1126.75267 1067.00000 0.00094
1384 41.30499 1115.71394 1078.00000 0.00093
1385 41.33125 1111.57707 1013.00000 0.00099
1386 41.35751 1110.47132 1113.00000 0.00090
1387 41.38377 1110.91919 1026.00000 0.00097
1388 41.41003 1112.46251 1033.00000 0.00097
1389 41.43629 1115.00426 1127.00000 0.00089
1390 41.46256 1118.59979 1004.00000 0.00100
1391 41.48882 1123.41465 1103.00000 0.00091
1392 41.51508 1129.73542 1099.00000 0.00091
1393 41.54134 1138.01134 1020.00000 0.00098
1394 41.56760 1148.94173 1154.00000 0.00087
1395 41.59386 1163.68068 1103.00000 0.00091
1396 41.62012 1184.43638 1186.00000 0.00084
1397 41.64638 1216.34376 1222.00000 0.00082
1398 41.67264 1272.44112 1354.00000 0.00074
1399 41.69890 1382.98008 1442.00000 0.00069
1400 41.72516 1602.94164 1657.00000 0.00060
1401 41.75142 1995.25243 2118.00000 0.00047
1402 41.77768 2561.43262 2694.00000 0.00037
1403 41.80394 3141.79902 3429.00000 0.00029
1404 41.83020 3395.11152 3669.00000 0.00027
1405 41.85646 3088.30505 3474.00000 0.00029
1406 41.88272 2506.32821 2684.00000 0.00037
1407 41.90898 2048.72710 2112.00000 0.00047
1408 41.93525 1881.91232 1933.00000 0.00052
1409 41.96151 2036.87488 1978.00000 0.00051
1410 41.98777 2480.18268 2505.00000 0.00040
1411 42.01403 3069.93096 2926.00000 0.00034
1412 42.04029 3486.38141 3409.00000 0.00029
1413 42.06655 3356.51006 3355.00000 0.00030
1414 42.09281 2747.80502 2766.00000 0.00036
1415 42.11907 2099.38107 2143.00000 0.00047
1416 42.14533 1645.25182 1642.00000 0.00061
1417 42.17159 1393.46144 1412.00000 0.00071
1418 42.19785 1270.75265 1293.00000 0.00077
1419 42.22411 1210.04819 1229.00000 0.00081
1420 42.25037 1175.31149 1151.00000 0.00087
1421 42.27663 1152.13703 1173.00000 0.00085
1422 42.30289 1135.27040 1097.00000 0.00091
1423 42.32915 1122.47892 1091.00000 0.00092
1424 42.35541 1112.55216 1104.00000 0.00091
1425 42.38167 1104.73445 1118.00000 0.00089
1426 42.40794 1098.52904 1113.00000 0.00090
1427 42.43420 1093.60435 1107.00000 0.00090
1428 42.46046 1089.74096 1108.00000 0.00090
1429 42.48672 1086.80066 1096.00000 0.00091
1430 42.51298 1084.70896 993.00000 0.00101
1431 42.53924 1083.44707 1050.00000 0.00095
1432 42.56550 1083.05224 1148.00000 0.00087
1433 42.59176 1083.62425 1133.00000 0.00088
1434 42.61802 1085.35311 1045.00000 0.00096
1435 42.64428 1088.54754 1132.00000 0.00088
1436 42.67054 1093.70573 1150.00000 0.00087
1437 42.69680 1101.71548 1144.00000 0.00087
1438 42.72306 1114.45125 1185.00000 0.00084
1439 42.74932 1136.58620 1193.00000 0.00084
1440 42.77558 1179.92285 1315.00000 0.00076
1441 42.80184 1270.09115 1380.00000 0.00072
1442 42.82810 1448.56841 1487.00000 0.00067
1443 42.85437 1750.79448 1808.00000 0.00055
1444 42.88063 2148.41318 2141.00000 0.00047
1445 42.90689 2487.95762 2472.00000 0.00040
1446 42.93315 2524.61526 2512.00000 0.00040
1447 42.95941 2202.72021 2312.00000 0.00043
1448 42.98567 1778.96453 1879.00000 0.00053
1449 43.01193 1452.83131 1450.00000 0.00069
1450 43.03819 1260.94447 1323.00000 0.00076
1451 43.06445 1165.27757 1194.00000 0.00084
1452 43.09071 1119.48783 1152.00000 0.00087
1453 43.11697 1095.09031 1209.00000 0.00083
1454 43.14323 1079.78427 1112.00000 0.00090
1455 43.16949 1069.09343 1162.00000 0.00086
1456 43.19575 1061.28975 1170.00000 0.00085
1457 43.22201 1055.54493 1158.00000 0.00086
1458 43.24827 1051.40275 1093.00000 0.00091
1459 43.27453 1048.62341 1149.00000 0.00087
1460 43.30079 1047.12932 1108.00000 0.00090
1461 43.32706 1047.01026 1136.00000 0.00088
1462 43.35332 1048.60313 1130.00000 0.00088
1463 43.37958 1052.92018 1138.00000 0.00088
1464 43.40584 1062.62304 1177.00000 0.00085
1465 43.43210 1084.17303 1218.00000 0.00082
1466 43.45836 1130.28769 1223.00000 0.00082
1467 43.48462 1217.80899 1315.00000 0.00076
1468 43.51088 1353.63412 1541.00000 0.00065
1469 43.53714 1509.06228 1553.00000 0.00064
1470 43.56340 1604.56503 1705.00000 0.00059
1471 43.58966 1558.11164 1642.00000 0.00061
1472 43.61592 1407.06412 1625.00000 0.00062
1473 43.64218 1259.33141 1292.00000 0.00077
1474 43.66844 1168.52654 1288.00000 0.00078
1475 43.69470 1139.94583 1170.00000 0.00085
1476 43.72096 1159.13435 1242.00000 0.00081
1477 43.74722 1202.14512 1245.00000 0.00080
1478 43.77348 1233.59316 1274.00000 0.00078
1479 43.79975 1217.26728 1242.00000 0.00081
1480 43.82601 1158.51649 1165.00000 0.00086
1481 43.85227 1096.18664 1146.00000 0.00087
1482 43.87853 1051.39995 1039.00000 0.00096
1483 43.90479 1025.29241 1052.00000 0.00095
1484 43.93105 1011.45142 1093.00000 0.00091
1485 43.95731 1003.72343 975.00000 0.00103
1486 43.98357 998.65879 1060.00000 0.00094
1487 44.00983 994.82061 1033.00000 0.00097
1488 44.03609 991.66796 1003.00000 0.00100
1489 44.06235 988.96720 996.00000 0.00100
1490 44.08861 986.58973 1016.00000 0.00098
1491 44.11487 984.45311 963.00000 0.00104
1492 44.14113 982.50092 993.00000 0.00101
1493 44.16739 980.69319 1003.00000 0.00100
1494 44.19365 979.00463 958.00000 0.00104
1495 44.21991 977.42629 962.00000 0.00104
1496 44.24617 975.94797 916.00000 0.00109
1497 44.27244 974.49290 960.00000 0.00104
1498 44.29870 973.09311 964.00000 0.00104
1499 44.32496 971.74087 962.00000 0.00104
1500 44.35122 970.42996 955.00000 0.00105
1501 44.37748 969.15538 928.00000 0.00108
1502 44.40374 967.91306 1010.00000 0.00099
1503 44.43000 966.69962 999.00000 0.00100
1504 44.45626 965.51213 926.00000 0.00108
1505 44.48252 964.34836 948.00000 0.00105
1506 44.50878 963.20627 953.00000 0.00105
1507 44.53504 962.08238 983.00000 0.00102
1508 44.56130 960.97264 923.00000 0.00108
1509 44.58756 959.86601 917.00000 0.00109
1510 44.61382 958.77147 962.00000 0.00104
1511 44.64008 957.71898 972.00000 0.00103
1512 44.66634 956.68172 983.00000 0.00102
1513 44.69260 955.65922 950.00000 0.00105
1514 44.71887 954.65114 942.00000 0.00106
1515 44.74513 953.65732 953.00000 0.00105
1516 44.77139 952.67775 914.00000 0.00109
1517 44.79765 951.71263 913.00000 0.00110
1518 44.82391 950.76236 999.00000 0.00100
1519 44.85017 949.82765 934.00000 0.00107
1520 44.87643 948.90960 907.00000 0.00110
1521 44.90269 948.00980 886.00000 0.00113
1522 44.92895 947.13061 913.00000 0.00110
1523 44.95521 946.27543 890.00000 0.00112
1524 44.98147 945.44934 891.00000 0.00112
1525 45.00773 944.66019 903.00000 0.00111
1526 45.03399 943.92166 957.00000 0.00104
1527 45.06025 943.26251 915.00000 0.00109
1528 45.08651 942.75406 913.00000 0.00110
1529 45.11277 942.57185 972.00000 0.00103
1530 45.13903 943.07670 941.00000 0.00106
1531 45.16529 944.75583 977.00000 0.00102
1532 45.19156 947.95483 896.00000 0.00112
1533 45.21782 952.10839 921.00000 0.00109
1534 45.24408 955.12725 996.00000 0.00100
1535 45.27034 954.29596 953.00000 0.00105
1536 45.29660 949.93536 870.00000 0.00115
1537 45.32286 945.55415 929.00000 0.00108
1538 45.34912 943.83500 893.00000 0.00112
1539 45.37538 946.02904 922.00000 0.00108
1540 45.40164 952.18943 893.00000 0.00112
1541 45.42790 960.37779 987.00000 0.00101
1542 45.45416 965.81059 916.00000 0.00109
1543 45.48042 963.10579 934.00000 0.00107
1544 45.50668 953.45888 872.00000 0.00115
1545 45.53294 943.13786 872.00000 0.00115
1546 45.55920 935.53981 926.00000 0.00108
1547 45.58546 930.91217 932.00000 0.00107
1548 45.61172 928.27336 875.00000 0.00114
1549 45.63798 926.64552 898.00000 0.00111
1550 45.66425 925.47062 966.00000 0.00104
1551 45.69051 924.50669 871.00000 0.00115
1552 45.71677 923.66655 930.00000 0.00108
1553 45.74303 922.92274 869.00000 0.00115
1554 45.76929 922.26256 949.00000 0.00105
1555 45.79555 921.68234 954.00000 0.00105
1556 45.82181 921.18474 884.00000 0.00113
1557 45.84807 920.77800 868.00000 0.00115
1558 45.87433 920.47636 878.00000 0.00114
1559 45.90059 920.30129 895.00000 0.00112
1560 45.92685 920.28385 874.00000 0.00114
1561 45.95311 920.46856 932.00000 0.00107
1562 45.97937 920.91983 917.00000 0.00109
1563 46.00563 921.73284 905.00000 0.00110
1564 46.03189 923.05502 878.00000 0.00114
1565 46.05815 925.14074 895.00000 0.00112
1566 46.08441 928.52210 931.00000 0.00107
1567 46.11068 934.52330 940.00000 0.00106
1568 46.13694 946.47104 889.00000 0.00112
1569 46.16320 971.45327 995.00000 0.00101
1570 46.18946 1020.49841 1045.00000 0.00096
1571 46.21572 1102.66157 1133.00000 0.00088
1572 46.24198 1210.22837 1221.00000 0.00082
1573 46.26824 1302.31824 1271.00000 0.00079
1574 46.29450 1313.91762 1298.00000 0.00077
1575 46.32076 1229.96121 1236.00000 0.00081
1576 46.34702 1116.12200 1113.00000 0.00090
1577 46.37328 1025.52184 991.00000 0.00101
1578 46.39954 970.11584 948.00000 0.00105
1579 46.42580 941.44819 913.00000 0.00110
1580 46.45206 927.45822 944.00000 0.00106
1581 46.47832 920.07428 883.00000 0.00113
1582 46.50458 915.55747 869.00000 0.00115
1583 46.53084 912.50127 929.00000 0.00108
1584 46.55710 910.41530 874.00000 0.00114
1585 46.58337 909.05790 897.00000 0.00111
1586 46.60963 908.36978 938.00000 0.00107
1587 46.63589 908.37349 896.00000 0.00112
1588 46.66215 909.20635 839.00000 0.00119
1589 46.68841 911.23361 892.00000 0.00112
1590 46.71467 915.42596 933.00000 0.00107
1591 46.74093 924.31279 939.00000 0.00106
1592 46.76719 943.53789 914.00000 0.00109
1593 46.79345 982.52909 955.00000 0.00105
1594 46.81971 1050.54013 977.00000 0.00102
1595 46.84597 1144.84959 1070.00000 0.00093
1596 46.87223 1235.09703 1200.00000 0.00083
1597 46.89849 1263.64200 1144.00000 0.00087
1598 46.92475 1201.45780 1170.00000 0.00085
1599 46.95101 1098.54711 1014.00000 0.00099
1600 46.97727 1010.05121 956.00000 0.00105
1601 47.00353 953.07248 929.00000 0.00108
1602 47.02979 922.44851 878.00000 0.00114
1603 47.05606 907.22705 877.00000 0.00114
1604 47.08232 899.20875 875.00000 0.00114
1605 47.10858 894.17827 875.00000 0.00114
1606 47.13484 890.57523 887.00000 0.00113
1607 47.16110 887.78457 899.00000 0.00111
1608 47.18736 885.52475 886.00000 0.00113
1609 47.21362 883.61553 850.00000 0.00118
1610 47.23988 881.99527 919.00000 0.00109
1611 47.26614 880.67084 815.00000 0.00123
1612 47.29240 879.53728 897.00000 0.00111
1613 47.31866 878.56788 861.00000 0.00116
1614 47.34492 877.74661 917.00000 0.00109
1615 47.37118 877.06561 883.00000 0.00113
1616 47.39744 876.51845 839.00000 0.00119
1617 47.42370 876.10163 893.00000 0.00112
1618 47.44996 875.79725 887.00000 0.00113
1619 47.47622 875.69584 907.00000 0.00110
1620 47.50249 875.85585 896.00000 0.00112
1621 47.52875 876.27391 891.00000 0.00112
1622 47.55501 877.01441 832.00000 0.00120
1623 47.58127 878.16939 888.00000 0.00113
1624 47.60753 879.87290 896.00000 0.00112
1625 47.63379 882.32746 901.00000 0.00111
1626 47.66005 885.86610 906.00000 0.00110
1627 47.68631 891.13872 923.00000 0.00108
1628 47.71257 899.69197 889.00000 0.00112
1629 47.73883 915.45853 1011.00000 0.00099
1630 47.76509 947.33619 1013.00000 0.00099
1631 47.79135 1010.77430 1124.00000 0.00089
1632 47.81761 1122.50413 1207.00000 0.00083
1633 47.84387 1282.53451 1301.00000 0.00077
1634 47.87013 1447.28952 1525.00000 0.00066
1635 47.89639 1521.99424 1572.00000 0.00064
1636 47.92265 1439.77404 1601.00000 0.00062
1637 47.94891 1268.32847 1339.00000 0.00075
1638 47.97518 1109.66601 1213.00000 0.00082
1639 48.00144 1003.51207 1015.00000 0.00099
1640 48.02770 945.93621 957.00000 0.00104
1641 48.05396 918.81801 974.00000 0.00103
1642 48.08022 906.82732 939.00000 0.00106
1643 48.10648 901.78243 921.00000 0.00109
1644 48.13274 900.43315 869.00000 0.00115
1645 48.15900 901.74562 971.00000 0.00103
1646 48.18526 905.53876 948.00000 0.00105
1647 48.21152 912.05833 914.00000 0.00109
1648 48.23778 921.95335 929.00000 0.00108
1649 48.26404 936.54437 1010.00000 0.00099
1650 48.29030 958.79438 980.00000 0.00102
1651 48.31656 996.21223 1036.00000 0.00097
1652 48.34282 1067.39564 1169.00000 0.00086
1653 48.36908 1210.72401 1338.00000 0.00075
1654 48.39534 1483.40120 1588.00000 0.00063
1655 48.42160 1928.65676 1971.00000 0.00051
1656 48.44787 2500.62398 2403.00000 0.00042
1657 48.47413 2982.63647 2891.00000 0.00035
1658 48.50039 3044.23804 3037.00000 0.00033
1659 48.52665 2632.06018 2716.00000 0.00037
1660 48.55291 2097.43403 2119.00000 0.00047
1661 48.57917 1730.47739 1856.00000 0.00054
1662 48.60543 1622.07684 1797.00000 0.00056
1663 48.63169 1736.18344 1754.00000 0.00057
1664 48.65795 1946.66032 2018.00000 0.00050
1665 48.68421 2056.63351 2107.00000 0.00047
1666 48.71047 1916.90176 2077.00000 0.00048
1667 48.73673 1613.79467 1725.00000 0.00058
1668 48.76299 1322.69159 1320.00000 0.00076
1669 48.78925 1119.97790 1152.00000 0.00087
1670 48.81551 1003.62118 1048.00000 0.00095
1671 48.84177 943.38827 966.00000 0.00104
1672 48.86803 911.59415 925.00000 0.00108
1673 48.89429 892.52911 899.00000 0.00111
1674 48.92056 879.42444 885.00000 0.00113
1675 48.94682 869.65578 823.00000 0.00122
1676 48.97308 862.09213 832.00000 0.00120
1677 48.99934 856.12513 892.00000 0.00112
1678 49.02560 851.37352 858.00000 0.00117
1679 49.05186 847.58058 878.00000 0.00114
1680 49.07812 844.60175 846.00000 0.00118
1681 49.10438 842.34472 757.00000 0.00132
1682 49.13064 840.74908 855.00000 0.00117
1683 49.15690 839.81477 828.00000 0.00121
1684 49.18316 839.59489 821.00000 0.00122
1685 49.20942 840.21443 876.00000 0.00114
1686 49.23568 841.92576 823.00000 0.00122
1687 49.26194 845.28975 901.00000 0.00111
1688 49.28820 851.72961 831.00000 0.00120
1689 49.31446 864.86659 833.00000 0.00120
1690 49.34072 892.44863 934.00000 0.00107
1691 49.36699 946.95544 947.00000 0.00106
1692 49.39325 1039.94523 990.00000 0.00101
1693 49.41951 1166.95057 1120.00000 0.00089
1694 49.44577 1287.54918 1284.00000 0.00078
1695 49.47203 1326.15649 1313.00000 0.00076
1696 49.49829 1246.02815 1281.00000 0.00078
1697 49.52455 1111.36483 1118.00000 0.00089
1698 49.55081 993.53603 1020.00000 0.00098
1699 49.57707 916.36892 957.00000 0.00104
1700 49.60333 874.65026 869.00000 0.00115
1701 49.62959 854.59024 917.00000 0.00109
1702 49.65585 845.16261 866.00000 0.00115
1703 49.68211 840.59867 858.00000 0.00117
1704 49.70837 838.59965 813.00000 0.00123
1705 49.73463 838.40375 853.00000 0.00117
1706 49.76089 839.84079 848.00000 0.00118
1707 49.78715 843.05080 881.00000 0.00114
1708 49.81341 848.51849 886.00000 0.00113
1709 49.83968 857.25475 874.00000 0.00114
1710 49.86594 872.14846 897.00000 0.00111
1711 49.89220 900.45647 917.00000 0.00109
1712 49.91846 958.05137 1024.00000 0.00098
1713 49.94472 1070.96912 1075.00000 0.00093
1714 49.97098 1264.70052 1315.00000 0.00076
1715 49.99724 1533.69742 1650.00000 0.00061
1716 50.02350 1798.81836 1862.00000 0.00054
1717 50.04976 1901.21301 2013.00000 0.00050
1718 50.07602 1747.53643 1885.00000 0.00053
1719 50.10228 1462.41408 1506.00000 0.00066
1720 50.12854 1204.06590 1280.00000 0.00078
1721 50.15480 1030.73307 1080.00000 0.00093
1722 50.18106 934.92457 951.00000 0.00105
1723 50.20732 887.60391 895.00000 0.00112
1724 50.23358 863.89107 892.00000 0.00112
1725 50.25984 850.02867 857.00000 0.00117
1726 50.28610 840.48601 827.00000 0.00121
1727 50.31237 833.48880 837.00000 0.00119
1728 50.33863 828.31574 881.00000 0.00114
1729 50.36489 824.49143 858.00000 0.00117
1730 50.39115 821.64855 807.00000 0.00124
1731 50.41741 819.51759 825.00000 0.00121
1732 50.44367 817.91691 801.00000 0.00125
1733 50.46993 816.72841 842.00000 0.00119
1734 50.49619 815.87396 781.00000 0.00128
1735 50.52245 815.30031 803.00000 0.00125
1736 50.54871 814.97119 788.00000 0.00127
1737 50.57497 814.86319 814.00000 0.00123
1738 50.60123 814.96386 806.00000 0.00124
1739 50.62749 815.27926 793.00000 0.00126
1740 50.65375 815.85132 779.00000 0.00128
1741 50.68001 816.60866 807.00000 0.00124
1742 50.70627 817.64017 785.00000 0.00127
1743 50.73253 819.00985 758.00000 0.00132
1744 50.75880 820.82707 787.00000 0.00127
1745 50.78506 823.30462 834.00000 0.00120
1746 50.81132 826.94091 802.00000 0.00125
1747 50.83758 833.00297 778.00000 0.00129
1748 50.86384 844.42988 871.00000 0.00115
1749 50.89010 866.59755 843.00000 0.00119
1750 50.91636 906.11090 871.00000 0.00115
1751 50.94262 965.42888 915.00000 0.00109
1752 50.96888 1033.45256 1014.00000 0.00099
1753 50.99514 1078.36390 1053.00000 0.00095
1754 51.02140 1065.65642 1037.00000 0.00096
1755 51.04766 1005.74229 1029.00000 0.00097
1756 51.07392 939.63393 969.00000 0.00103
1757 51.10018 890.50870 859.00000 0.00116
1758 51.12644 861.55659 860.00000 0.00116
1759 51.15270 847.15397 818.00000 0.00122
1760 51.17896 840.64615 811.00000 0.00123
1761 51.20522 837.79931 827.00000 0.00121
1762 51.23149 836.62881 816.00000 0.00123
1763 51.25775 836.37243 834.00000 0.00120
1764 51.28401 836.75408 821.00000 0.00122
1765 51.31027 837.68077 842.00000 0.00119
1766 51.33653 839.16213 830.00000 0.00120
1767 51.36279 841.34456 790.00000 0.00127
1768 51.38905 844.68931 820.00000 0.00122
1769 51.41531 850.41391 850.00000 0.00118
1770 51.44157 861.14955 814.00000 0.00123
1771 51.46783 881.09674 898.00000 0.00111
1772 51.49409 914.18130 932.00000 0.00107
1773 51.52035 959.18737 976.00000 0.00102
1774 51.54661 1003.09678 1085.00000 0.00092
1775 51.57287 1020.31851 1114.00000 0.00090
1776 51.59913 996.44705 1142.00000 0.00088
1777 51.62539 951.66740 953.00000 0.00105
1778 51.65165 911.03150 914.00000 0.00109
1779 51.67791 883.90623 845.00000 0.00118
1780 51.70418 869.29316 857.00000 0.00117
1781 51.73044 862.66738 809.00000 0.00124
1782 51.75670 860.06575 817.00000 0.00122
1783 51.78296 859.25992 844.00000 0.00118
1784 51.80922 859.28883 814.00000 0.00123
1785 51.83548 859.78197 821.00000 0.00122
1786 51.86174 860.58311 833.00000 0.00120
1787 51.88800 861.60901 827.00000 0.00121
1788 51.91426 862.80305 823.00000 0.00122
1789 51.94052 864.14756 884.00000 0.00113
1790 51.96678 865.63427 798.00000 0.00125
1791 51.99304 867.22623 835.00000 0.00120
1792 52.01930 868.92548 824.00000 0.00121
1793 52.04556 870.73108 829.00000 0.00121
1794 52.07182 872.64696 817.00000 0.00122
1795 52.09808 874.68220 854.00000 0.00117
1796 52.12434 876.85199 881.00000 0.00114
1797 52.15061 879.17936 866.00000 0.00115
1798 52.17687 881.69810 853.00000 0.00117
1799 52.20313 884.45765 818.00000 0.00122
1800 52.22939 887.53178 845.00000 0.00118
1801 52.25565 891.03737 889.00000 0.00112
1802 52.28191 895.18749 868.00000 0.00115
1803 52.30817 900.45682 851.00000 0.00118
1804 52.33443 908.03220 864.00000 0.00116
1805 52.36069 920.70482 914.00000 0.00109
1806 52.38695 943.79254 915.00000 0.00109
1807 52.41321 984.39370 975.00000 0.00103
1808 52.43947 1046.65338 1048.00000 0.00095
1809 52.46573 1122.56401 1133.00000 0.00088
1810 52.49199 1182.53247 1195.00000 0.00084
1811 52.51825 1185.88084 1129.00000 0.00089
1812 52.54451 1130.63549 1106.00000 0.00090
1813 52.57077 1058.92918 1080.00000 0.00093
1814 52.59703 1001.82486 975.00000 0.00103
1815 52.62330 967.00181 962.00000 0.00104
1816 52.64956 950.06789 949.00000 0.00105
1817 52.67582 943.81090 813.00000 0.00123
1818 52.70208 942.96298 922.00000 0.00108
1819 52.72834 944.91755 917.00000 0.00109
1820 52.75460 948.74723 923.00000 0.00108
1821 52.78086 954.31385 943.00000 0.00106
1822 52.80712 961.89498 900.00000 0.00111
1823 52.83338 972.22797 894.00000 0.00112
1824 52.85964 987.08545 928.00000 0.00108
1825 52.88590 1011.00983 1021.00000 0.00098
1826 52.91216 1054.97621 1065.00000 0.00094
1827 52.93842 1140.75345 1178.00000 0.00085
1828 52.96468 1299.37366 1327.00000 0.00075
1829 52.99094 1553.38877 1597.00000 0.00063
1830 53.01720 1879.09414 1914.00000 0.00052
1831 53.04346 2161.81258 2203.00000 0.00045
1832 53.06972 2216.28600 2270.00000 0.00044
1833 53.09599 1991.59528 2025.00000 0.00049
1834 53.12225 1660.60664 1665.00000 0.00060
1835 53.14851 1378.79408 1433.00000 0.00070
1836 53.17477 1194.13313 1138.00000 0.00088
1837 53.20103 1092.81679 1058.00000 0.00095
1838 53.22729 1042.70397 1033.00000 0.00097
1839 53.25355 1017.85895 1052.00000 0.00095
1840 53.27981 1004.21337 1027.00000 0.00097
1841 53.30607 995.76395 938.00000 0.00107
1842 53.33233 990.16723 987.00000 0.00101
1843 53.35859 986.40254 962.00000 0.00104
1844 53.38485 983.92009 945.00000 0.00106
1845 53.41111 982.37392 992.00000 0.00101
1846 53.43737 981.53046 965.00000 0.00104
1847 53.46363 981.22701 922.00000 0.00108
1848 53.48989 981.34817 991.00000 0.00101
1849 53.51615 981.81125 947.00000 0.00106
1850 53.54241 982.55692 971.00000 0.00103
1851 53.56868 983.54199 937.00000 0.00107
1852 53.59494 984.73351 965.00000 0.00104
1853 53.62120 986.09739 959.00000 0.00104
1854 53.64746 987.68267 1004.00000 0.00100
1855 53.67372 989.46409 1025.00000 0.00098
1856 53.69998 991.46213 963.00000 0.00104
1857 53.72624 993.72282 1006.00000 0.00099
1858 53.75250 996.33660 1020.00000 0.00098
1859 53.77876 999.49001 1028.00000 0.00097
1860 53.80502 1003.71006 1007.00000 0.00099
1861 53.83128 1010.21473 988.00000 0.00101
1862 53.85754 1021.33626 1073.00000 0.00093
1863 53.88380 1040.25047 1025.00000 0.00098
1864 53.91006 1069.00605 1122.00000 0.00089
1865 53.93632 1104.51787 1182.00000 0.00085
1866 53.96258 1134.41170 1155.00000 0.00087
1867 53.98884 1140.04499 1163.00000 0.00086
1868 54.01511 1118.07733 1161.00000 0.00086
1869 54.04137 1086.61590 1148.00000 0.00087
1870 54.06763 1060.75816 1168.00000 0.00086
1871 54.09389 1044.97869 1119.00000 0.00089
1872 54.12015 1037.80230 1089.00000 0.00092
1873 54.14641 1036.04493 1067.00000 0.00094
1874 54.17267 1037.19258 1098.00000 0.00091
1875 54.19893 1039.93497 1011.00000 0.00099
1876 54.22519 1043.78752 997.00000 0.00100
1877 54.25145 1048.66176 1146.00000 0.00087
1878 54.27771 1054.90993 1092.00000 0.00092
1879 54.30397 1062.88662 1145.00000 0.00087
1880 54.33023 1073.62706 1186.00000 0.00084
1881 54.35649 1089.60454 1115.00000 0.00090
1882 54.38275 1116.24201 1296.00000 0.00077
1883 54.40901 1163.07455 1224.00000 0.00082
1884 54.43527 1241.63990 1374.00000 0.00073
1885 54.46153 1357.08383 1500.00000 0.00067
1886 54.48780 1494.07486 1734.00000 0.00058
1887 54.51406 1605.27455 1771.00000 0.00056
1888 54.54032 1640.95718 1924.00000 0.00052
1889 54.56658 1635.85630 1846.00000 0.00054
1890 54.59284 1700.12990 1911.00000 0.00052
1891 54.61910 1924.33705 2026.00000 0.00049
1892 54.64536 2328.61680 2437.00000 0.00041
1893 54.67162 2813.53489 2893.00000 0.00035
1894 54.69788 3124.26177 3289.00000 0.00030
1895 54.72414 3003.27686 3329.00000 0.00030
1896 54.75040 2535.56511 2731.00000 0.00037
1897 54.77666 2018.82635 2161.00000 0.00046
1898 54.80292 1624.00529 1780.00000 0.00056
1899 54.82918 1380.16606 1479.00000 0.00068
1900 54.85544 1249.74570 1387.00000 0.00072
1901 54.88170 1183.94029 1312.00000 0.00076
1902 54.90796 1148.90604 1251.00000 0.00080
1903 54.93422 1127.69710 1144.00000 0.00087
1904 54.96049 1113.30001 1211.00000 0.00083
1905 54.98675 1102.90000 1119.00000 0.00089
1906 55.01301 1095.21815 1097.00000 0.00091
1907 55.03927 1089.43492 1121.00000 0.00089
1908 55.06553 1085.11079 1103.00000 0.00091
1909 55.09179 1081.92844 1090.00000 0.00092
1910 55.11805 1079.67937 1104.00000 0.00091
1911 55.14431 1078.23740 1180.00000 0.00085
1912 55.17057 1077.55088 1145.00000 0.00087
1913 55.19683 1077.66110 1086.00000 0.00092
1914 55.22309 1078.80243 1151.00000 0.00087
1915 55.24935 1081.67437 1147.00000 0.00087
1916 55.27561 1087.98529 1110.00000 0.00090
1917 55.30187 1101.10966 1072.00000 0.00093
1918 55.32813 1125.56666 1185.00000 0.00084
1919 55.35439 1164.37682 1180.00000 0.00085
1920 55.38065 1213.61409 1271.00000 0.00079
1921 55.40692 1256.04303 1272.00000 0.00079
1922 55.43318 1264.29600 1305.00000 0.00077
1923 55.45944 1231.15030 1242.00000 0.00081
1924 55.48570 1181.91531 1230.00000 0.00081
1925 55.51196 1139.58471 1136.00000 0.00088
1926 55.53822 1111.73469 1070.00000 0.00093
1927 55.56448 1096.80371 1050.00000 0.00095
1928 55.59074 1090.25455 1084.00000 0.00092
1929 55.61700 1088.25050 1026.00000 0.00097
1930 55.64326 1088.69299 1122.00000 0.00089
1931 55.66952 1090.79130 1063.00000 0.00094
1932 55.69578 1094.45974 1081.00000 0.00093
1933 55.72204 1100.05815 1100.00000 0.00091
1934 55.74830 1108.58812 1090.00000 0.00092
1935 55.77456 1122.62539 1099.00000 0.00091
1936 55.80082 1148.49503 1165.00000 0.00086
1937 55.82708 1199.34706 1193.00000 0.00084
1938 55.85334 1295.83603 1309.00000 0.00076
1939 55.87961 1457.83005 1397.00000 0.00072
1940 55.90587 1683.14770 1550.00000 0.00065
1941 55.93213 1916.59031 1862.00000 0.00054
1942 55.95839 2035.68181 1986.00000 0.00050
1943 55.98465 1945.25700 1809.00000 0.00055
1944 56.01091 1717.89569 1656.00000 0.00060
1945 56.03717 1487.54188 1442.00000 0.00069
1946 56.06343 1319.83977 1280.00000 0.00078
1947 56.08969 1221.18102 1148.00000 0.00087
1948 56.11595 1170.96487 1164.00000 0.00086
1949 56.14221 1144.55920 1145.00000 0.00087
1950 56.16847 1126.18059 1034.00000 0.00097
1951 56.19473 1111.19929 1107.00000 0.00090
1952 56.22099 1099.54680 1060.00000 0.00094
1953 56.24725 1091.17865 1055.00000 0.00095
1954 56.27351 1085.51950 1047.00000 0.00096
1955 56.29977 1081.73788 1031.00000 0.00097
1956 56.32603 1079.18652 1103.00000 0.00091
1957 56.35230 1077.45225 1055.00000 0.00095
1958 56.37856 1076.32375 1030.00000 0.00097
1959 56.40482 1075.70654 1019.00000 0.00098
1960 56.43108 1075.56934 1082.00000 0.00092
1961 56.45734 1075.92036 1070.00000 0.00093
1962 56.48360 1076.80664 1090.00000 0.00092
1963 56.50986 1078.31663 1055.00000 0.00095
1964 56.53612 1080.59389 1067.00000 0.00094
1965 56.56238 1083.86295 1057.00000 0.00095
1966 56.58864 1088.48740 1024.00000 0.00098
1967 56.61490 1095.13403 1106.00000 0.00090
1968 56.64116 1105.27477 1081.00000 0.00093
1969 56.66742 1122.52892 1117.00000 0.00090
1970 56.69368 1155.31417 1170.00000 0.00085
1971 56.71994 1219.75071 1164.00000 0.00086
1972 56.74620 1338.22911 1326.00000 0.00075
1973 56.77246 1527.10405 1442.00000 0.00069
1974 56.79873 1771.56534 1825.00000 0.00055
1975 56.82499 1994.13186 2049.00000 0.00049
1976 56.85125 2059.76704 2073.00000 0.00048
1977 56.87751 1911.95877 2023.00000 0.00049
1978 56.90377 1662.76918 1670.00000 0.00060
1979 56.93003 1434.97742 1337.00000 0.00075
1980 56.95629 1276.01571 1211.00000 0.00083
1981 56.98255 1183.25247 1217.00000 0.00082
1982 57.00881 1135.06149 1117.00000 0.00090
1983 57.03507 1110.79718 1104.00000 0.00091
1984 57.06133 1097.88058 1046.00000 0.00096
1985 57.08759 1090.52012 1030.00000 0.00097
1986 57.11385 1086.53377 1036.00000 0.00097
1987 57.14011 1085.31113 1103.00000 0.00091
1988 57.16637 1087.21207 988.00000 0.00101
1989 57.19263 1094.04242 984.00000 0.00102
1990 57.21889 1110.51188 1067.00000 0.00094
1991 57.24515 1145.96248 1141.00000 0.00088
1992 57.27142 1213.69699 1135.00000 0.00088
1993 57.29768 1324.00089 1231.00000 0.00081
1994 57.32394 1469.52175 1465.00000 0.00068
1995 57.35020 1606.34849 1517.00000 0.00066
1996 57.37646 1653.69835 1682.00000 0.00059
1997 57.40272 1570.66927 1594.00000 0.00063
1998 57.42898 1419.94856 1449.00000 0.00069
1999 57.45524 1278.31121 1324.00000 0.00076
2000 57.48150 1177.62246 1200.00000 0.00083
2001 57.50776 1117.90000 1009.00000 0.00099
2002 57.53402 1086.05530 995.00000 0.00101
2003 57.56028 1068.71642 1015.00000 0.00099
2004 57.58654 1057.73749 979.00000 0.00102
2005 57.61280 1049.80102 946.00000 0.00106
2006 57.63906 1043.75008 965.00000 0.00104
2007 57.66532 1039.05351 1000.00000 0.00100
2008 57.69158 1035.34358 913.00000 0.00110
2009 57.71784 1032.33069 924.00000 0.00108
2010 57.74411 1029.80733 970.00000 0.00103
2011 57.77037 1027.64100 994.00000 0.00101
2012 57.79663 1025.75155 901.00000 0.00111
2013 57.82289 1024.09036 964.00000 0.00104
2014 57.84915 1022.62814 966.00000 0.00104
2015 57.87541 1021.34932 918.00000 0.00109
2016 57.90167 1020.25015 965.00000 0.00104
2017 57.92793 1019.33901 924.00000 0.00108
2018 57.95419 1018.63897 957.00000 0.00104
2019 57.98045 1018.19494 1013.00000 0.00099
2020 58.00671 1018.09446 948.00000 0.00105
2021 58.03297 1018.53201 923.00000 0.00108
2022 58.05923 1019.98594 966.00000 0.00104
2023 58.08549 1023.58870 1016.00000 0.00098
2024 58.11175 1031.59627 939.00000 0.00106
2025 58.13801 1047.37571 1051.00000 0.00095
2026 58.16427 1073.92872 1056.00000 0.00095
2027 58.19053 1110.47228 1051.00000 0.00095
2028 58.21680 1147.66323 1104.00000 0.00091
2029 58.24306 1165.59080 1110.00000 0.00090
2030 58.26932 1149.49766 1163.00000 0.00086
2031 58.29558 1111.39833 1132.00000 0.00088
2032 58.32184 1072.50884 1027.00000 0.00097
2033 58.34810 1043.36998 1004.00000 0.00100
2034 58.37436 1025.32314 978.00000 0.00102
2035 58.40062 1015.53152 1023.00000 0.00098
2036 58.42688 1010.56833 1071.00000 0.00093
2037 58.45314 1008.09479 1013.00000 0.00099
2038 58.47940 1006.97140 1012.00000 0.00099
2039 58.50566 1006.82257 1067.00000 0.00094
2040 58.53192 1007.68473 1066.00000 0.00094
2041 58.55818 1009.99042 1013.00000 0.00099
2042 58.58444 1014.99045 1049.00000 0.00095
2043 58.61070 1025.61625 1137.00000 0.00088
2044 58.63696 1047.36815 1100.00000 0.00091
2045 58.66323 1087.67695 1185.00000 0.00084
2046 58.68949 1151.72793 1238.00000 0.00081
2047 58.71575 1234.32058 1364.00000 0.00073
2048 58.74201 1309.66387 1443.00000 0.00069
2049 58.76827 1332.65350 1450.00000 0.00069
2050 58.79453 1283.39231 1412.00000 0.00071
2051 58.82079 1198.18083 1336.00000 0.00075
2052 58.84705 1118.55834 1178.00000 0.00085
2053 58.87331 1061.55159 1037.00000 0.00096
2054 58.89957 1027.15691 1063.00000 0.00094
2055 58.92583 1008.46767 1125.00000 0.00089
2056 58.95209 998.42695 1092.00000 0.00092
2057 58.97835 992.50391 1047.00000 0.00096
2058 59.00461 988.49141 1038.00000 0.00096
2059 59.03087 985.46594 1080.00000 0.00093
2060 59.05713 983.02788 1070.00000 0.00093
2061 59.08339 980.98545 1051.00000 0.00095
2062 59.10965 979.30797 1088.00000 0.00092
2063 59.13592 977.87511 981.00000 0.00102
2064 59.16218 976.63993 1034.00000 0.00097
2065 59.18844 975.57103 976.00000 0.00102
2066 59.21470 974.64831 996.00000 0.00100
2067 59.24096 973.86062 920.00000 0.00109
2068 59.26722 973.20461 972.00000 0.00103
2069 59.29348 972.68470 1007.00000 0.00099
2070 59.31974 972.31432 949.00000 0.00105
2071 59.34600 972.11927 1010.00000 0.00099
2072 59.37226 972.14702 1022.00000 0.00098
2073 59.39852 972.49509 1009.00000 0.00099
2074 59.42478 973.39347 960.00000 0.00104
2075 59.45104 975.39797 1038.00000 0.00096
2076 59.47730 979.70043 994.00000 0.00101
2077 59.50356 988.31779 1005.00000 0.00100
2078 59.52982 1003.58709 1067.00000 0.00094
2079 59.55608 1026.44052 981.00000 0.00102
2080 59.58234 1053.55887 1084.00000 0.00092
2081 59.60861 1074.41204 1124.00000 0.00089
2082 59.63487 1074.93748 1165.00000 0.00086
2083 59.66113 1054.48231 1092.00000 0.00092
2084 59.68739 1027.16998 1109.00000 0.00090
2085 59.71365 1004.05365 984.00000 0.00102
2086 59.73991 988.65656 1008.00000 0.00099
2087 59.76617 980.14568 1073.00000 0.00093
2088 59.79243 976.21789 987.00000 0.00101
2089 59.81869 974.87764 1011.00000 0.00099
2090 59.84495 974.99023 1029.00000 0.00097
2091 59.87121 976.11186 1020.00000 0.00098
2092 59.89747 978.21232 961.00000 0.00104
2093 59.92373 981.59279 1071.00000 0.00093
2094 59.94999 987.10158 1002.00000 0.00100
2095 59.97625 996.68364 1010.00000 0.00099
2096 60.00251 1014.03699 1026.00000 0.00097
2097 60.02877 1044.41928 1066.00000 0.00094
2098 60.05504 1092.31897 1076.00000 0.00093
2099 60.08130 1156.61689 1136.00000 0.00088
2100 60.10756 1224.44573 1252.00000 0.00080
2101 60.13382 1270.52016 1377.00000 0.00073
2102 60.16008 1284.44055 1316.00000 0.00076
2103 60.18634 1301.83343 1418.00000 0.00071
2104 60.21260 1371.52361 1380.00000 0.00072
2105 60.23886 1514.37531 1589.00000 0.00063
2106 60.26512 1703.62353 1694.00000 0.00059
2107 60.29138 1849.42519 1859.00000 0.00054
2108 60.31764 1837.36496 1920.00000 0.00052
2109 60.34390 1665.75702 1706.00000 0.00059
2110 60.37016 1445.58923 1423.00000 0.00070
2111 60.39642 1260.15653 1270.00000 0.00079
2112 60.42268 1134.91660 1140.00000 0.00088
2113 60.44894 1062.31835 1087.00000 0.00092
2114 60.47520 1023.82541 935.00000 0.00107
2115 60.50146 1003.38469 999.00000 0.00100
2116 60.52773 991.49777 975.00000 0.00103
2117 60.55399 983.73292 967.00000 0.00103
2118 60.58025 978.25471 974.00000 0.00103
2119 60.60651 974.27316 988.00000 0.00101
2120 60.63277 971.42137 986.00000 0.00101
2121 60.65903 969.49736 902.00000 0.00111
2122 60.68529 968.38357 905.00000 0.00110
2123 60.71155 968.05927 919.00000 0.00109
2124 60.73781 968.61087 948.00000 0.00105
2125 60.76407 970.33067 951.00000 0.00105
2126 60.79033 973.99501 965.00000 0.00104
2127 60.81659 981.56856 957.00000 0.00104
2128 60.84285 997.10019 1013.00000 0.00099
2129 60.86911 1026.53592 1015.00000 0.00099
2130 60.89537 1075.67783 1083.00000 0.00092
2131 60.92163 1144.52130 1116.00000 0.00090
2132 60.94789 1219.11326 1188.00000 0.00084
2133 60.97415 1265.38771 1299.00000 0.00077
2134 61.00042 1249.64344 1232.00000 0.00081
2135 61.02668 1184.26214 1186.00000 0.00084
2136 61.05294 1109.52459 1025.00000 0.00098
2137 61.07920 1049.97670 1093.00000 0.00091
2138 61.10546 1011.57682 1008.00000 0.00099
2139 61.13172 990.59909 967.00000 0.00103
2140 61.15798 980.64924 972.00000 0.00103
2141 61.18424 976.71603 989.00000 0.00101
2142 61.21050 976.09213 944.00000 0.00106
2143 61.23676 977.79188 974.00000 0.00103
2144 61.26302 981.94445 942.00000 0.00106
2145 61.28928 989.88869 977.00000 0.00102
2146 61.31554 1005.22198 1035.00000 0.00097
2147 61.34180 1035.56806 1041.00000 0.00096
2148 61.36806 1093.34423 1127.00000 0.00089
2149 61.39432 1192.09293 1213.00000 0.00082
2150 61.42058 1335.80311 1440.00000 0.00069
2151 61.44685 1502.20781 1594.00000 0.00063
2152 61.47311 1625.97027 1734.00000 0.00058
2153 61.49937 1623.88757 1738.00000 0.00058
2154 61.52563 1496.86514 1645.00000 0.00061
2155 61.55189 1330.47901 1350.00000 0.00074
2156 61.57815 1189.62087 1256.00000 0.00080
2157 61.60441 1094.81952 1156.00000 0.00087
2158 61.63067 1040.32862 1116.00000 0.00090
2159 61.65693 1010.69871 1031.00000 0.00097
2160 61.68319 992.72830 974.00000 0.00103
2161 61.70945 980.12562 1012.00000 0.00099
2162 61.73571 970.85026 909.00000 0.00110
2163 61.76197 964.09053 944.00000 0.00106
2164 61.78823 959.25661 919.00000 0.00109
2165 61.81449 955.79349 855.00000 0.00117
2166 61.84075 953.24031 887.00000 0.00113
2167 61.86701 951.28568 866.00000 0.00115
2168 61.89327 949.74582 872.00000 0.00115
2169 61.91954 948.50088 891.00000 0.00112
2170 61.94580 947.49697 850.00000 0.00118
2171 61.97206 946.69547 919.00000 0.00109
2172 61.99832 946.07311 860.00000 0.00116
2173 62.02458 945.61908 904.00000 0.00111
2174 62.05084 945.33577 898.00000 0.00111
2175 62.07710 945.24532 913.00000 0.00110
2176 62.10336 945.40805 886.00000 0.00113
2177 62.12962 945.97434 929.00000 0.00108
2178 62.15588 947.37919 927.00000 0.00108
2179 62.18214 950.44331 931.00000 0.00107
2180 62.20840 956.36075 935.00000 0.00107
2181 62.23466 966.30836 984.00000 0.00102
2182 62.26092 980.32762 959.00000 0.00104
2183 62.28718 995.72947 983.00000 0.00102
2184 62.31344 1005.79689 947.00000 0.00106
2185 62.33970 1003.43563 1046.00000 0.00096
2186 62.36596 990.47235 949.00000 0.00105
2187 62.39223 975.03374 951.00000 0.00105
2188 62.41849 962.47050 979.00000 0.00102
2189 62.44475 954.29404 935.00000 0.00107
2190 62.47101 949.91546 931.00000 0.00107
2191 62.49727 948.09027 928.00000 0.00108
2192 62.52353 947.79517 942.00000 0.00106
2193 62.54979 948.49516 905.00000 0.00110
2194 62.57605 950.08316 930.00000 0.00108
2195 62.60231 952.84664 952.00000 0.00105
2196 62.62857 957.70942 989.00000 0.00101
2197 62.65483 966.88066 923.00000 0.00108
2198 62.68109 984.69904 992.00000 0.00101
2199 62.70735 1017.64715 1029.00000 0.00097
2200 62.73361 1071.85919 1014.00000 0.00099
2201 62.75987 1147.30129 1140.00000 0.00088
2202 62.78613 1229.38926 1209.00000 0.00083
2203 62.81239 1282.25651 1329.00000 0.00075
2204 62.83865 1268.79672 1284.00000 0.00078
2205 62.86492 1199.62147 1160.00000 0.00086
2206 62.89118 1117.89007 1083.00000 0.00092
2207 62.91744 1051.69457 1092.00000 0.00092
2208 62.94370 1008.50951 995.00000 0.00101
2209 62.96996 983.98458 985.00000 0.00102
2210 62.99622 969.76454 930.00000 0.00108
2211 63.02248 959.77273 903.00000 0.00111
2212 63.04874 951.96658 895.00000 0.00112
2213 63.07500 945.96068 915.00000 0.00109
2214 63.10126 941.61868 946.00000 0.00106
2215 63.12752 938.57677 899.00000 0.00111
2216 63.15378 936.45422 910.00000 0.00110
2217 63.18004 934.93025 967.00000 0.00103
2218 63.20630 933.79812 878.00000 0.00114
2219 63.23256 932.94905 872.00000 0.00115
2220 63.25882 932.33518 942.00000 0.00106
2221 63.28508 931.94298 926.00000 0.00108
2222 63.31135 931.78170 904.00000 0.00111
2223 63.33761 931.88184 872.00000 0.00115
2224 63.36387 932.30143 935.00000 0.00107
2225 63.39013 933.14652 875.00000 0.00114
2226 63.41639 934.63347 934.00000 0.00107
2227 63.44265 937.26372 833.00000 0.00120
2228 63.46891 942.22029 886.00000 0.00113
2229 63.49517 951.99363 939.00000 0.00106
2230 63.52143 970.77655 874.00000 0.00114
2231 63.54769 1003.58351 1044.00000 0.00096
2232 63.57395 1053.03826 1073.00000 0.00093
2233 63.60021 1114.01243 1171.00000 0.00085
2234 63.62647 1167.19331 1182.00000 0.00085
2235 63.65273 1181.31313 1234.00000 0.00081
2236 63.67899 1144.82670 1111.00000 0.00090
2237 63.70525 1083.75118 1082.00000 0.00092
2238 63.73151 1026.17082 1022.00000 0.00098
2239 63.75777 984.08720 1008.00000 0.00099
2240 63.78404 958.24767 962.00000 0.00104
2241 63.81030 944.40033 977.00000 0.00102
2242 63.83656 937.73927 936.00000 0.00107
2243 63.86282 934.99687 946.00000 0.00106
2244 63.88908 934.62253 928.00000 0.00108
2245 63.91534 936.31937 941.00000 0.00106
2246 63.94160 940.90843 1009.00000 0.00099
2247 63.96786 950.89147 1002.00000 0.00100
2248 63.99412 971.48761 1005.00000 0.00100
2249 64.02038 1010.93497 1069.00000 0.00094
2250 64.04664 1077.90575 1095.00000 0.00091
2251 64.07290 1174.65315 1203.00000 0.00083
2252 64.09916 1286.61808 1331.00000 0.00075
2253 64.12542 1371.58879 1412.00000 0.00071
2254 64.15168 1374.08759 1366.00000 0.00073
2255 64.17794 1290.74252 1317.00000 0.00076
2256 64.20420 1176.12219 1215.00000 0.00082
2257 64.23046 1074.94385 1118.00000 0.00089
2258 64.25673 1003.27090 1034.00000 0.00097
2259 64.28299 959.55860 978.00000 0.00102
2260 64.30925 935.21801 949.00000 0.00105
2261 64.33551 921.75957 927.00000 0.00108
2262 64.36177 913.65050 970.00000 0.00103
2263 64.38803 908.09279 948.00000 0.00105
2264 64.41429 903.86832 914.00000 0.00109
2265 64.44055 900.45748 954.00000 0.00105
2266 64.46681 897.61016 908.00000 0.00110
2267 64.49307 895.18362 911.00000 0.00110
2268 64.51933 893.08666 932.00000 0.00107
2269 64.54559 891.25709 931.00000 0.00107
2270 64.57185 889.66337 912.00000 0.00110
2271 64.59811 888.29005 895.00000 0.00112
2272 64.62437 887.13021 897.00000 0.00111
2273 64.65063 886.20109 891.00000 0.00112
2274 64.67689 885.53686 876.00000 0.00114
2275 64.70316 885.20417 920.00000 0.00109
2276 64.72942 885.37108 901.00000 0.00111
2277 64.75568 886.42409 964.00000 0.00104
2278 64.78194 889.25731 937.00000 0.00107
2279 64.80820 895.66741 932.00000 0.00107
2280 64.83446 908.50190 975.00000 0.00103
2281 64.86072 930.85512 996.00000 0.00100
2282 64.88698 963.81008 991.00000 0.00101
2283 64.91324 1002.93929 1066.00000 0.00094
2284 64.93950 1034.43272 1010.00000 0.00099
2285 64.96576 1038.54987 1023.00000 0.00098
2286 64.99202 1011.34763 1029.00000 0.00097
2287 65.01828 970.81016 1027.00000 0.00097
2288 65.04454 933.76474 880.00000 0.00114
2289 65.07080 906.97704 895.00000 0.00112
2290 65.09706 890.54341 886.00000 0.00113
2291 65.12332 881.73604 858.00000 0.00117
2292 65.14958 877.56855 864.00000 0.00116
2293 65.17585 876.08711 851.00000 0.00118
2294 65.20211 876.45904 864.00000 0.00116
2295 65.22837 878.77415 876.00000 0.00114
2296 65.25463 884.15967 829.00000 0.00121
2297 65.28089 895.40077 927.00000 0.00108
2298 65.30715 917.65966 931.00000 0.00107
2299 65.33341 958.03411 939.00000 0.00106
2300 65.35967 1022.37751 1014.00000 0.00099
2301 65.38593 1109.05770 1107.00000 0.00090
2302 65.41219 1200.63294 1249.00000 0.00080
2303 65.43845 1259.01596 1176.00000 0.00085
2304 65.46471 1252.30883 1157.00000 0.00086
2305 65.49097 1202.92359 1191.00000 0.00084
2306 65.51723 1161.10373 1161.00000 0.00086
2307 65.54349 1154.35514 1167.00000 0.00086
2308 65.56975 1177.78020 1227.00000 0.00081
2309 65.59601 1197.25912 1174.00000 0.00085
2310 65.62227 1172.17530 1161.00000 0.00086
2311 65.64854 1102.18974 1122.00000 0.00089
2312 65.67480 1020.41993 1075.00000 0.00093
2313 65.70106 951.36228 984.00000 0.00102
2314 65.72732 902.84572 919.00000 0.00109
2315 65.75358 872.75466 900.00000 0.00111
2316 65.77984 855.22106 857.00000 0.00117
2317 65.80610 844.78288 837.00000 0.00119
2318 65.83236 837.91683 803.00000 0.00125
2319 65.85862 832.83400 750.00000 0.00133
2320 65.88488 828.74266 800.00000 0.00125
2321 65.91114 825.28679 773.00000 0.00129
2322 65.93740 822.28570 761.00000 0.00131
2323 65.96366 819.63204 764.00000 0.00131
2324 65.98992 817.25501 796.00000 0.00126
2325 66.01618 815.11153 764.00000 0.00131
2326 66.04244 813.19736 843.00000 0.00119
2327 66.06870 811.54115 794.00000 0.00126
2328 66.09497 810.25185 783.00000 0.00128
2329 66.12123 809.53513 752.00000 0.00133
2330 66.14749 809.65284 808.00000 0.00124
2331 66.17375 810.76749 792.00000 0.00126
2332 66.20001 812.67444 814.00000 0.00123
2333 66.22627 814.46268 778.00000 0.00129
2334 66.25253 814.44846 768.00000 0.00130
2335 66.27879 811.57906 756.00000 0.00132
2336 66.30505 806.93189 786.00000 0.00127
2337 66.33131 802.19435 808.00000 0.00124
2338 66.35757 798.25072 803.00000 0.00125
2339 66.38383 795.28279 760.00000 0.00132
2340 66.41009 793.11405 739.00000 0.00135
2341 66.43635 791.47437 782.00000 0.00128
2342 66.46261 790.15333 751.00000 0.00133
2343 66.48887 789.04200 811.00000 0.00123
2344 66.51513 788.12296 785.00000 0.00127
2345 66.54139 787.46755 788.00000 0.00127
2346 66.56766 787.29017 806.00000 0.00124
2347 66.59392 788.00505 766.00000 0.00131
2348 66.62018 790.17967 808.00000 0.00124
2349 66.64644 794.31865 816.00000 0.00123
2350 66.67270 800.36262 815.00000 0.00123
2351 66.69896 806.99921 792.00000 0.00126
2352 66.72522 811.07074 767.00000 0.00130
2353 66.75148 809.24208 824.00000 0.00121
2354 66.77774 802.18045 794.00000 0.00126
2355 66.80400 793.59483 777.00000 0.00129
2356 66.83026 786.14415 854.00000 0.00117
2357 66.85652 780.71110 782.00000 0.00128
2358 66.88278 777.12275 750.00000 0.00133
2359 66.90904 774.79641 769.00000 0.00130
2360 66.93530 773.18585 815.00000 0.00123
2361 66.96156 771.95087 816.00000 0.00123
2362 66.98782 770.91723 819.00000 0.00122
2363 67.01408 770.00960 758.00000 0.00132
2364 67.04035 769.19245 771.00000 0.00130
2365 67.06661 768.44645 769.00000 0.00130
2366 67.09287 767.75954 790.00000 0.00127
2367 67.11913 767.12387 802.00000 0.00125
2368 67.14539 766.53440 728.00000 0.00137
2369 67.17165 765.98786 805.00000 0.00124
2370 67.19791 765.48217 758.00000 0.00132
2371 67.22417 765.01600 780.00000 0.00128
2372 67.25043 764.58858 791.00000 0.00126
2373 67.27669 764.19956 809.00000 0.00124
2374 67.30295 763.84895 829.00000 0.00121
2375 67.32921 763.53706 756.00000 0.00132
2376 67.35547 763.26452 778.00000 0.00129
2377 67.38173 763.03222 787.00000 0.00127
2378 67.40799 762.84095 771.00000 0.00130
2379 67.43425 762.68371 777.00000 0.00129
2380 67.46051 762.57266 796.00000 0.00126
2381 67.48677 762.51772 781.00000 0.00128
2382 67.51304 762.51361 776.00000 0.00129
2383 67.53930 762.56439 801.00000 0.00125
2384 67.56556 762.67527 790.00000 0.00127
2385 67.59182 762.85299 831.00000 0.00120
2386 67.61808 763.10640 770.00000 0.00130
2387 67.64434 763.44729 786.00000 0.00127
2388 67.67060 763.89270 786.00000 0.00127
2389 67.69686 764.46282 782.00000 0.00128
2390 67.72312 765.19135 822.00000 0.00122
2391 67.74938 766.13131 793.00000 0.00126
2392 67.77564 767.38400 778.00000 0.00129
2393 67.80190 769.17314 791.00000 0.00126
2394 67.82816 772.00563 799.00000 0.00125
2395 67.85442 776.91762 815.00000 0.00123
2396 67.88068 785.64103 836.00000 0.00120
2397 67.90694 800.29637 838.00000 0.00119
2398 67.93320 822.23615 843.00000 0.00119
2399 67.95947 850.07587 857.00000 0.00117
2400 67.98573 877.18262 917.00000 0.00109
2401 68.01199 890.96696 944.00000 0.00106
2402 68.03825 882.72051 923.00000 0.00108
2403 68.06451 860.22979 934.00000 0.00107
2404 68.09077 837.02257 914.00000 0.00109
2405 68.11703 820.27262 849.00000 0.00118
2406 68.14329 810.72367 882.00000 0.00113
2407 68.16955 805.04896 765.00000 0.00131
2408 68.19581 799.50115 779.00000 0.00128
2409 68.22207 793.42217 743.00000 0.00135
2410 68.24833 788.01794 805.00000 0.00124
2411 68.27459 784.07545 784.00000 0.00128
2412 68.30085 781.72941 769.00000 0.00130
2413 68.32711 780.70040 733.00000 0.00136
2414 68.35337 780.58130 775.00000 0.00129
2415 68.37963 781.03281 738.00000 0.00136
2416 68.40589 781.84814 823.00000 0.00122
2417 68.43216 782.92971 747.00000 0.00134
2418 68.45842 784.24565 749.00000 0.00134
2419 68.48468 785.80078 731.00000 0.00137
2420 68.51094 787.62668 711.00000 0.00141
2421 68.53720 789.78902 786.00000 0.00127
2422 68.56346 792.42301 797.00000 0.00125
2423 68.58972 795.83370 791.00000 0.00126
2424 68.61598 800.72176 812.00000 0.00123
2425 68.64224 808.55033 766.00000 0.00131
2426 68.66850 821.85021 773.00000 0.00129
2427 68.69476 843.90729 849.00000 0.00118
2428 68.72102 877.20692 851.00000 0.00118
2429 68.74728 920.57858 915.00000 0.00109
2430 68.77354 965.40781 1037.00000 0.00096
2431 68.79980 993.05720 992.00000 0.00101
2432 68.82606 986.08353 951.00000 0.00105
2433 68.85232 950.93080 898.00000 0.00111
2434 68.87858 908.68315 930.00000 0.00108
2435 68.90485 873.35340 844.00000 0.00118
2436 68.93111 849.47132 879.00000 0.00114
2437 68.95737 836.06229 841.00000 0.00119
2438 68.98363 830.03026 804.00000 0.00124
2439 69.00989 828.44760 839.00000 0.00119
2440 69.03615 829.51252 839.00000 0.00119
2441 69.06241 832.61740 828.00000 0.00121
2442 69.08867 838.28301 870.00000 0.00115
2443 69.11493 848.37188 828.00000 0.00121
2444 69.14119 866.37219 902.00000 0.00111
2445 69.16745 896.92058 909.00000 0.00110
2446 69.19371 943.61907 928.00000 0.00108
2447 69.21997 1005.04734 1006.00000 0.00099
2448 69.24623 1069.32222 1064.00000 0.00094
2449 69.27249 1110.17658 1169.00000 0.00086
2450 69.29875 1101.64683 1101.00000 0.00091
2451 69.32501 1051.24226 1021.00000 0.00098
2452 69.35128 989.13668 1018.00000 0.00098
2453 69.37754 936.13151 926.00000 0.00108
2454 69.40380 899.25358 905.00000 0.00110
2455 69.43006 877.38810 872.00000 0.00115
2456 69.45632 866.06788 853.00000 0.00117
2457 69.48258 860.87342 784.00000 0.00128
2458 69.50884 858.82576 857.00000 0.00117
2459 69.53510 858.34543 850.00000 0.00118
2460 69.56136 858.71155 907.00000 0.00110
2461 69.58762 859.61003 799.00000 0.00125
2462 69.61388 860.89274 852.00000 0.00117
2463 69.64014 862.47902 800.00000 0.00125
2464 69.66640 864.32193 835.00000 0.00120
2465 69.69266 866.39562 767.00000 0.00130
2466 69.71892 868.69086 787.00000 0.00127
2467 69.74518 871.21424 796.00000 0.00126
2468 69.77144 873.99113 832.00000 0.00120
2469 69.79770 877.07700 813.00000 0.00123
2470 69.82397 880.59157 807.00000 0.00124
2471 69.85023 884.81011 871.00000 0.00115
2472 69.87649 890.36109 867.00000 0.00115
2473 69.90275 898.53244 879.00000 0.00114
2474 69.92901 911.51815 861.00000 0.00116
2475 69.95527 932.02634 881.00000 0.00114
2476 69.98153 962.04960 882.00000 0.00113
2477 70.00779 1000.41723 934.00000 0.00107
2478 70.03405 1039.70439 977.00000 0.00102
2479 70.06031 1064.19326 986.00000 0.00101
2480 70.08657 1059.41609 1013.00000 0.00099
2481 70.11283 1030.80099 966.00000 0.00104
2482 70.13909 995.96283 952.00000 0.00105
2483 70.16535 966.73985 937.00000 0.00107
2484 70.19161 947.08979 948.00000 0.00105
2485 70.21787 936.31929 901.00000 0.00111
2486 70.24413 931.86497 922.00000 0.00108
2487 70.27039 931.19373 882.00000 0.00113
2488 70.29666 932.67537 910.00000 0.00110
2489 70.32292 935.50973 885.00000 0.00113
2490 70.34918 939.55333 909.00000 0.00110
2491 70.37544 945.09808 944.00000 0.00106
2492 70.40170 952.86973 892.00000 0.00112
2493 70.42796 963.85578 965.00000 0.00104
2494 70.45422 979.01392 987.00000 0.00101
2495 70.48048 998.91738 1057.00000 0.00095
2496 70.50674 1023.57694 1032.00000 0.00097
2497 70.53300 1053.04609 1036.00000 0.00097
2498 70.55926 1091.24165 1127.00000 0.00089
2499 70.58552 1149.38579 1213.00000 0.00082
2500 70.61178 1237.90186 1279.00000 0.00078
2501 70.63804 1353.43318 1406.00000 0.00071
2502 70.66430 1468.13780 1624.00000 0.00062
2503 70.69056 1526.62261 1603.00000 0.00062
2504 70.71682 1486.99720 1582.00000 0.00063
2505 70.74309 1376.79477 1467.00000 0.00068
2506 70.76935 1253.51699 1286.00000 0.00078
2507 70.79561 1151.84991 1169.00000 0.00086
2508 70.82187 1082.02722 1109.00000 0.00090
2509 70.84813 1040.39985 1147.00000 0.00087
2510 70.87439 1018.11257 1003.00000 0.00100
2511 70.90065 1006.93027 1018.00000 0.00098
2512 70.92691 1001.45124 974.00000 0.00103
2513 70.95317 998.84730 1030.00000 0.00097
2514 70.97943 997.83601 981.00000 0.00102
2515 71.00569 997.86700 995.00000 0.00101
2516 71.03195 998.70361 985.00000 0.00102
2517 71.05821 1000.27165 1008.00000 0.00099
2518 71.08447 1002.64024 1042.00000 0.00096
2519 71.11073 1006.15060 986.00000 0.00101
2520 71.13699 1011.64406 1021.00000 0.00098
2521 71.16325 1020.76250 1037.00000 0.00096
2522 71.18951 1035.99276 1047.00000 0.00096
2523 71.21578 1059.94510 1133.00000 0.00088
2524 71.24204 1093.56917 1113.00000 0.00090
2525 71.26830 1133.51174 1175.00000 0.00085
2526 71.29456 1168.96110 1221.00000 0.00082
2527 71.32082 1182.40589 1174.00000 0.00085
2528 71.34708 1165.60177 1205.00000 0.00083
2529 71.37334 1131.21346 1191.00000 0.00084
2530 71.39960 1095.93080 1137.00000 0.00088
2531 71.42586 1068.41670 1140.00000 0.00088
2532 71.45212 1050.64254 1093.00000 0.00091
2533 71.47838 1041.04214 1036.00000 0.00097
2534 71.50464 1036.88409 1102.00000 0.00091
2535 71.53090 1035.94436 1097.00000 0.00091
2536 71.55716 1036.95639 1088.00000 0.00092
2537 71.58342 1039.61436 1066.00000 0.00094
2538 71.60968 1044.50117 1081.00000 0.00093
2539 71.63594 1053.10126 1032.00000 0.00097
2540 71.66220 1067.59776 1090.00000 0.00092
2541 71.68847 1090.02584 1097.00000 0.00091
2542 71.71473 1120.48391 1226.00000 0.00082
2543 71.74099 1154.78095 1224.00000 0.00082
2544 71.76725 1181.88147 1344.00000 0.00074
2545 71.79351 1186.96228 1280.00000 0.00078
2546 71.81977 1167.27210 1211.00000 0.00083
2547 71.84603 1136.12796 1245.00000 0.00080
2548 71.87229 1106.51029 1185.00000 0.00084
2549 71.89855 1084.25514 1193.00000 0.00084
2550 71.92481 1070.09606 1162.00000 0.00086
2551 71.95107 1062.22705 1126.00000 0.00089
2552 71.97733 1058.30273 1093.00000 0.00091
2553 72.00359 1056.53597 1091.00000 0.00092
2554 72.02985 1055.87846 1181.00000 0.00085
2555 72.05611 1055.80706 1138.00000 0.00088
2556 72.08237 1056.07846 1112.00000 0.00090
2557 72.10863 1056.57283 1120.00000 0.00089
2558 72.13490 1057.22320 1162.00000 0.00086
2559 72.16116 1057.99747 1070.00000 0.00093
2560 72.18742 1058.83865 1118.00000 0.00089
2561 72.21368 1059.77913 1147.00000 0.00087
2562 72.23994 1060.79988 1036.00000 0.00097
2563 72.26620 1061.91024 1128.00000 0.00089
2564 72.29246 1063.13578 1095.00000 0.00091
2565 72.31872 1064.53627 1127.00000 0.00089
2566 72.34498 1066.24194 1085.00000 0.00092
2567 72.37124 1068.57162 1093.00000 0.00091
2568 72.39750 1072.13009 1170.00000 0.00085
2569 72.42376 1077.84433 1113.00000 0.00090
2570 72.45002 1086.78740 1164.00000 0.00086
2571 72.47628 1099.56807 1135.00000 0.00088
2572 72.50254 1115.37963 1136.00000 0.00088
2573 72.52880 1130.79624 1171.00000 0.00085
2574 72.55506 1139.27000 1177.00000 0.00085
2575 72.58132 1135.72801 1158.00000 0.00086
2576 72.60759 1123.23965 1129.00000 0.00089
2577 72.63385 1108.79022 1101.00000 0.00091
2578 72.66011 1096.80247 1124.00000 0.00089
2579 72.68637 1088.74173 1081.00000 0.00093
2580 72.71263 1084.38064 1005.00000 0.00100
2581 72.73889 1082.72335 1055.00000 0.00095
2582 72.76515 1082.93699 1047.00000 0.00096
2583 72.79141 1084.63793 1094.00000 0.00091
2584 72.81767 1088.13858 1127.00000 0.00089
2585 72.84393 1094.70480 1063.00000 0.00094
2586 72.87019 1106.84006 1121.00000 0.00089
2587 72.89645 1128.14932 1095.00000 0.00091
2588 72.92271 1162.09654 1228.00000 0.00081
2589 72.94897 1209.37353 1181.00000 0.00085
2590 72.97523 1264.20435 1284.00000 0.00078
2591 73.00149 1310.12577 1309.00000 0.00076
2592 73.02775 1322.61829 1395.00000 0.00072
2593 73.05401 1292.80087 1329.00000 0.00075
2594 73.08028 1239.98219 1215.00000 0.00082
2595 73.10654 1186.88538 1209.00000 0.00083
2596 73.13280 1144.91119 1164.00000 0.00086
2597 73.15906 1116.43371 1134.00000 0.00088
2598 73.18532 1099.02303 1188.00000 0.00084
2599 73.21158 1088.85271 1149.00000 0.00087
2600 73.23784 1082.77502 1089.00000 0.00092
2601 73.26410 1078.84180 1006.00000 0.00099
2602 73.29036 1076.03644 1070.00000 0.00093
2603 73.31662 1073.87756 1111.00000 0.00090
2604 73.34288 1072.13020 1032.00000 0.00097
2605 73.36914 1070.66407 1093.00000 0.00091
2606 73.39540 1069.39983 1022.00000 0.00098
2607 73.42166 1068.28832 1110.00000 0.00090
2608 73.44792 1067.30058 1014.00000 0.00099
2609 73.47418 1066.42233 1008.00000 0.00099
2610 73.50044 1065.65252 995.00000 0.00101
2611 73.52670 1065.00738 971.00000 0.00103
2612 73.55297 1064.53563 1062.00000 0.00094
2613 73.57923 1064.36589 1018.00000 0.00098
2614 73.60549 1064.77328 947.00000 0.00106
2615 73.63175 1066.28156 1033.00000 0.00097
2616 73.65801 1069.68571 936.00000 0.00107
2617 73.68427 1075.85887 994.00000 0.00101
2618 73.71053 1085.21211 984.00000 0.00102
2619 73.73679 1096.93784 1053.00000 0.00095
2620 73.76305 1108.00874 1092.00000 0.00092
2621 73.78931 1112.90193 1040.00000 0.00096
2622 73.81557 1107.67348 1114.00000 0.00090
2623 73.84183 1095.19181 1056.00000 0.00095
2624 73.86809 1081.19652 988.00000 0.00101
2625 73.89435 1069.22592 1034.00000 0.00097
2626 73.92061 1060.42212 948.00000 0.00105
2627 73.94687 1054.52834 980.00000 0.00102
2628 73.97313 1050.71695 948.00000 0.00105
2629 73.99940 1048.17093 1024.00000 0.00098
2630 74.02566 1046.35069 1003.00000 0.00100
2631 74.05192 1045.02466 1037.00000 0.00096
2632 74.07818 1044.21899 1074.00000 0.00093
2633 74.10444 1044.16793 1000.00000 0.00100
2634 74.13070 1045.23594 934.00000 0.00107
2635 74.15696 1047.73729 1046.00000 0.00096
2636 74.18322 1051.63015 1048.00000 0.00095
2637 74.20948 1056.11402 1062.00000 0.00094
2638 74.23574 1059.21253 994.00000 0.00101
2639 74.26200 1058.36395 1015.00000 0.00099
2640 74.28826 1053.15727 981.00000 0.00102
2641 74.31452 1045.91710 948.00000 0.00105
2642 74.34078 1038.89828 1017.00000 0.00098
2643 74.36704 1033.14950 1010.00000 0.00099
2644 74.39330 1028.83354 981.00000 0.00102
2645 74.41956 1025.67704 1062.00000 0.00094
2646 74.44582 1023.27805 969.00000 0.00103
2647 74.47209 1021.30424 987.00000 0.00101
2648 74.49835 1019.54940 935.00000 0.00107
2649 74.52461 1017.90807 964.00000 0.00104
2650 74.55087 1016.33244 953.00000 0.00105
2651 74.57713 1014.80161 978.00000 0.00102
2652 74.60339 1013.30610 978.00000 0.00102
2653 74.62965 1011.84165 949.00000 0.00105
2654 74.65591 1010.40701 929.00000 0.00108
2655 74.68217 1009.00325 985.00000 0.00102
2656 74.70843 1007.63383 959.00000 0.00104
2657 74.73469 1006.30559 971.00000 0.00103
2658 74.76095 1005.03171 977.00000 0.00102
2659 74.78721 1003.85967 1009.00000 0.00099
2660 74.81347 1002.80797 998.00000 0.00100
2661 74.83973 1002.01238 983.00000 0.00102
2662 74.86599 1001.66964 918.00000 0.00109
2663 74.89225 1002.04209 1001.00000 0.00100
2664 74.91851 1003.35843 1002.00000 0.00100
2665 74.94478 1005.65087 1037.00000 0.00096
2666 74.97104 1008.46642 994.00000 0.00101
2667 74.99730 1010.61404 981.00000 0.00102
2668 75.02356 1010.40892 1089.00000 0.00092
2669 75.04982 1007.34143 995.00000 0.00101
2670 75.07608 1002.81338 1028.00000 0.00097
2671 75.10234 998.42533 1001.00000 0.00100
2672 75.12860 995.01652 974.00000 0.00103
2673 75.15486 992.82914 1084.00000 0.00092
2674 75.18112 991.80414 971.00000 0.00103
2675 75.20738 991.83445 1032.00000 0.00097
2676 75.23364 992.99198 992.00000 0.00101
2677 75.25990 995.77169 1012.00000 0.00099
2678 75.28616 1001.42952 1049.00000 0.00095
2679 75.31242 1012.36917 1015.00000 0.00099
2680 75.33868 1032.21676 1124.00000 0.00089
2681 75.36494 1064.95506 1123.00000 0.00089
2682 75.39121 1112.73405 1134.00000 0.00088
2683 75.41747 1172.63438 1228.00000 0.00081
2684 75.44373 1232.68342 1260.00000 0.00079
2685 75.46999 1270.42891 1338.00000 0.00075
2686 75.49625 1269.23713 1305.00000 0.00077
2687 75.52251 1242.05252 1308.00000 0.00076
2688 75.54877 1215.40940 1274.00000 0.00078
2689 75.57503 1203.03689 1241.00000 0.00081
2690 75.60129 1200.52777 1288.00000 0.00078
2691 75.62755 1189.95734 1309.00000 0.00076
2692 75.65381 1157.94359 1250.00000 0.00080
2693 75.68007 1111.49558 1249.00000 0.00080
2694 75.70633 1065.06012 1140.00000 0.00088
2695 75.73259 1027.11560 1114.00000 0.00090
2696 75.75885 999.96849 1041.00000 0.00096
2697 75.78511 982.34262 1075.00000 0.00093
2698 75.81137 971.48521 1002.00000 0.00100
2699 75.83763 964.76940 1001.00000 0.00100
2700 75.86390 960.37750 1017.00000 0.00098
2701 75.89016 957.30721 1022.00000 0.00098
2702 75.91642 955.06675 994.00000 0.00101
2703 75.94268 953.47675 967.00000 0.00103
2704 75.96894 952.51146 935.00000 0.00107
2705 75.99520 952.29665 938.00000 0.00107
2706 76.02146 953.21159 1016.00000 0.00098
2707 76.04772 956.10283 1093.00000 0.00091
2708 76.07398 962.53131 1048.00000 0.00095
2709 76.10024 974.79156 1052.00000 0.00095
2710 76.12650 995.30125 1102.00000 0.00091
2711 76.15276 1025.13804 1103.00000 0.00091
2712 76.17902 1061.89613 1084.00000 0.00092
2713 76.20528 1097.02113 1172.00000 0.00085
2714 76.23154 1114.93383 1159.00000 0.00086
2715 76.25780 1103.89770 1072.00000 0.00093
2716 76.28406 1071.20863 1077.00000 0.00093
2717 76.31032 1033.26343 1059.00000 0.00094
2718 76.33659 1000.82607 1059.00000 0.00094
2719 76.36285 977.81848 962.00000 0.00104
2720 76.38911 964.03518 977.00000 0.00102
2721 76.41537 957.49341 997.00000 0.00100
2722 76.44163 956.24984 1021.00000 0.00098
2723 76.46789 959.56490 967.00000 0.00103
2724 76.49415 968.62550 984.00000 0.00102
2725 76.52041 987.12694 1094.00000 0.00091
2726 76.54667 1021.42675 1103.00000 0.00091
2727 76.57293 1079.22033 1116.00000 0.00090
2728 76.59919 1165.74493 1166.00000 0.00086
2729 76.62545 1277.69876 1331.00000 0.00075
2730 76.65171 1395.41872 1407.00000 0.00071
2731 76.67797 1476.21731 1526.00000 0.00066
2732 76.70423 1473.00421 1470.00000 0.00068
2733 76.73049 1387.57227 1364.00000 0.00073
2734 76.75675 1268.21937 1255.00000 0.00080
2735 76.78302 1156.42656 1123.00000 0.00089
2736 76.80928 1070.48036 1065.00000 0.00094
2737 76.83554 1012.55418 1030.00000 0.00097
2738 76.86180 976.69995 1025.00000 0.00098
2739 76.88806 955.25308 937.00000 0.00107
2740 76.91432 942.20354 922.00000 0.00108
2741 76.94058 933.79998 926.00000 0.00108
2742 76.96684 928.04146 982.00000 0.00102
2743 76.99310 923.91684 946.00000 0.00106
2744 77.01936 920.90505 890.00000 0.00112
2745 77.04562 918.72212 908.00000 0.00110
2746 77.07188 917.19931 938.00000 0.00107
2747 77.09814 916.24606 914.00000 0.00109
2748 77.12440 915.88127 915.00000 0.00109
2749 77.15066 916.06288 948.00000 0.00105
2750 77.17692 916.95042 944.00000 0.00106
2751 77.20318 918.84498 875.00000 0.00114
2752 77.22944 922.43622 935.00000 0.00107
2753 77.25571 929.17423 855.00000 0.00117
2754 77.28197 941.70018 937.00000 0.00107
2755 77.30823 963.92704 974.00000 0.00103
2756 77.33449 1000.10879 979.00000 0.00102
2757 77.36075 1052.48326 1065.00000 0.00094
2758 77.38701 1117.73432 1085.00000 0.00092
2759 77.41327 1182.53785 1166.00000 0.00086
2760 77.43953 1221.01936 1253.00000 0.00080
2761 77.46579 1209.78927 1172.00000 0.00085
2762 77.49205 1156.22077 1164.00000 0.00086
2763 77.51831 1088.44740 1081.00000 0.00093
2764 77.54457 1027.42273 1024.00000 0.00098
2765 77.57083 981.70203 992.00000 0.00101
2766 77.59709 951.81763 890.00000 0.00112
2767 77.62335 934.38518 932.00000 0.00107
2768 77.64961 925.24895 981.00000 0.00102
2769 77.67587 921.31295 885.00000 0.00113
2770 77.70213 921.18978 862.00000 0.00116
2771 77.72840 925.13333 923.00000 0.00108
2772 77.75466 934.71162 914.00000 0.00109
2773 77.78092 952.14510 952.00000 0.00105
2774 77.80718 979.04569 1009.00000 0.00099
2775 77.83344 1014.37810 1036.00000 0.00097
2776 77.85970 1052.12318 1114.00000 0.00090
2777 77.88596 1079.06511 1179.00000 0.00085
2778 77.91222 1079.88608 1057.00000 0.00095
2779 77.93848 1053.79407 1001.00000 0.00100
2780 77.96474 1015.63294 992.00000 0.00101
2781 77.99100 979.10972 1056.00000 0.00095
2782 78.01726 950.56821 943.00000 0.00106
2783 78.04352 930.97980 933.00000 0.00107
2784 78.06978 918.54866 879.00000 0.00114
2785 78.09604 910.86716 901.00000 0.00111
2786 78.12230 906.07688 946.00000 0.00106
2787 78.14856 902.97895 944.00000 0.00106
2788 78.17482 900.89644 882.00000 0.00113
2789 78.20109 899.46863 900.00000 0.00111
2790 78.22735 898.49115 952.00000 0.00105
2791 78.25361 897.83733 885.00000 0.00113
2792 78.27987 897.42703 861.00000 0.00116
2793 78.30613 897.21288 867.00000 0.00115
2794 78.33239 897.17117 842.00000 0.00119
2795 78.35865 897.29703 860.00000 0.00116
2796 78.38491 897.60678 871.00000 0.00115
2797 78.41117 898.15209 885.00000 0.00113
2798 78.43743 899.05446 863.00000 0.00116
2799 78.46369 900.59485 886.00000 0.00113
2800 78.48995 903.23345 891.00000 0.00112
2801 78.51621 907.63917 846.00000 0.00118
2802 78.54247 914.50107 860.00000 0.00116
2803 78.56873 924.12073 905.00000 0.00110
2804 78.59499 935.82584 893.00000 0.00112
2805 78.62125 947.24052 859.00000 0.00116
2806 78.64752 953.97968 926.00000 0.00108
2807 78.67378 952.43252 970.00000 0.00103
2808 78.70004 944.21595 943.00000 0.00106
2809 78.72630 934.04613 945.00000 0.00106
2810 78.75256 925.32536 833.00000 0.00120
2811 78.77882 919.47302 896.00000 0.00112
2812 78.80508 916.66369 887.00000 0.00113
2813 78.83134 916.52768 902.00000 0.00111
2814 78.85760 918.76558 904.00000 0.00111
2815 78.88386 923.68741 910.00000 0.00110
2816 78.91012 932.72338 893.00000 0.00112
2817 78.93638 948.87664 984.00000 0.00102
2818 78.96264 976.76980 1003.00000 0.00100
2819 78.98890 1021.48431 1035.00000 0.00097
2820 79.01516 1085.85684 1094.00000 0.00091
2821 79.04142 1166.39721 1190.00000 0.00084
2822 79.06768 1248.14768 1324.00000 0.00076
2823 79.09394 1300.95458 1279.00000 0.00078
2824 79.12021 1294.44770 1267.00000 0.00079
2825 79.14647 1233.07710 1259.00000 0.00079
2826 79.17273 1150.03928 1110.00000 0.00090
2827 79.19899 1072.56209 1029.00000 0.00097
2828 79.22525 1012.72635 974.00000 0.00103
2829 79.25151 972.29767 1004.00000 0.00100
2830 79.27777 947.64463 946.00000 0.00106
2831 79.30403 933.56009 917.00000 0.00109
2832 79.33029 925.62754 924.00000 0.00108
2833 79.35655 920.98649 863.00000 0.00116
2834 79.38281 918.09565 932.00000 0.00107
2835 79.40907 916.21693 917.00000 0.00109
2836 79.43533 915.01111 868.00000 0.00115
2837 79.46159 914.31664 924.00000 0.00108
2838 79.48785 914.05309 839.00000 0.00119
2839 79.51411 914.18563 900.00000 0.00111
2840 79.54037 914.71625 942.00000 0.00106
2841 79.56663 915.69272 915.00000 0.00109
2842 79.59290 917.24563 900.00000 0.00111
2843 79.61916 919.68176 942.00000 0.00106
2844 79.64542 923.66876 957.00000 0.00104
2845 79.67168 930.50237 930.00000 0.00108
2846 79.69794 942.30871 957.00000 0.00104
2847 79.72420 961.84270 912.00000 0.00110
2848 79.75046 991.50930 1066.00000 0.00094
2849 79.77672 1031.55888 1067.00000 0.00094
2850 79.80298 1077.66827 1109.00000 0.00090
2851 79.82924 1118.09645 1152.00000 0.00087
2852 79.85550 1134.52871 1071.00000 0.00093
2853 79.88176 1117.10514 1115.00000 0.00090
2854 79.90802 1077.20095 1055.00000 0.00095
2855 79.93428 1032.97313 1004.00000 0.00100
2856 79.96054 995.52659 995.00000 0.00101
2857 79.98680 968.76819 964.00000 0.00104
2858 80.01306 952.27563 960.00000 0.00104
2859 80.03933 943.69886 933.00000 0.00107
2860 80.06559 940.57954 942.00000 0.00106
2861 80.09185 941.39198 1014.00000 0.00099
2862 80.11811 945.89709 946.00000 0.00106
2863 80.14437 955.09974 989.00000 0.00101
2864 80.17063 970.91699 973.00000 0.00103
2865 80.19689 995.45789 1009.00000 0.00099
2866 80.22315 1029.93552 1067.00000 0.00094
2867 80.24941 1073.32617 1061.00000 0.00094
2868 80.27567 1121.01986 1133.00000 0.00088
2869 80.30193 1165.03409 1186.00000 0.00084
2870 80.32819 1203.09370 1212.00000 0.00083
2871 80.35445 1246.80067 1301.00000 0.00077
2872 80.38071 1308.38260 1388.00000 0.00072
2873 80.40697 1383.72428 1426.00000 0.00070
2874 80.43323 1445.39117 1567.00000 0.00064
2875 80.45949 1451.68505 1516.00000 0.00066
2876 80.48575 1387.57278 1443.00000 0.00069
2877 80.51202 1283.62218 1318.00000 0.00076
2878 80.53828 1177.64504 1189.00000 0.00084
2879 80.56454 1090.39554 1106.00000 0.00090
2880 80.59080 1027.91848 1110.00000 0.00090
2881 80.61706 987.69551 1035.00000 0.00097
2882 80.64332 963.62080 948.00000 0.00105
2883 80.66958 949.57661 1010.00000 0.00099
2884 80.69584 941.12801 978.00000 0.00102
2885 80.72210 935.66565 947.00000 0.00106
2886 80.74836 931.85890 923.00000 0.00108
2887 80.77462 929.08097 953.00000 0.00105
2888 80.80088 927.04684 954.00000 0.00105
2889 80.82714 925.65037 902.00000 0.00111
2890 80.85340 924.92149 917.00000 0.00109
2891 80.87966 925.03371 999.00000 0.00100
2892 80.90592 926.31212 945.00000 0.00106
2893 80.93218 929.08985 960.00000 0.00104
2894 80.95844 933.58824 942.00000 0.00106
2895 80.98471 939.55372 974.00000 0.00103
2896 81.01097 945.88584 959.00000 0.00104
2897 81.03723 950.30984 989.00000 0.00101
2898 81.06349 950.28318 1028.00000 0.00097
2899 81.08975 945.69589 960.00000 0.00104
2900 81.11601 939.01346 954.00000 0.00105
2901 81.14227 932.57024 948.00000 0.00105
2902 81.16853 927.52836 981.00000 0.00102
2903 81.19479 924.17956 995.00000 0.00101
2904 81.22105 922.34458 941.00000 0.00106
2905 81.24731 921.70597 920.00000 0.00109
2906 81.27357 922.06806 931.00000 0.00107
2907 81.29983 923.53954 993.00000 0.00101
2908 81.32609 926.59031 879.00000 0.00114
2909 81.35235 932.07905 916.00000 0.00109
2910 81.37861 941.00705 932.00000 0.00107
2911 81.40487 953.99356 967.00000 0.00103
2912 81.43114 970.51706 985.00000 0.00102
2913 81.45740 987.94744 970.00000 0.00103
2914 81.48366 1000.68248 969.00000 0.00103
2915 81.50992 1002.22090 990.00000 0.00101
2916 81.53618 991.92643 1015.00000 0.00099
2917 81.56244 975.92236 935.00000 0.00107
2918 81.58870 960.22803 1003.00000 0.00100
2919 81.61496 947.70945 969.00000 0.00103
2920 81.64122 938.74622 920.00000 0.00109
2921 81.66748 932.48291 935.00000 0.00107
2922 81.69374 928.04449 918.00000 0.00109
2923 81.72000 924.91299 932.00000 0.00107
2924 81.74626 922.74497 1021.00000 0.00098
2925 81.77252 921.29310 920.00000 0.00109
2926 81.79878 920.37860 902.00000 0.00111
2927 81.82504 919.86226 874.00000 0.00114
2928 81.85130 919.63590 837.00000 0.00119
2929 81.87756 919.62535 950.00000 0.00105
2930 81.90383 919.79048 871.00000 0.00115
2931 81.93009 920.12123 896.00000 0.00112
2932 81.95635 920.63686 920.00000 0.00109
2933 81.98261 921.40347 933.00000 0.00107
2934 82.00887 922.55306 901.00000 0.00111
2935 82.03513 924.38687 880.00000 0.00114
2936 82.06139 927.45526 930.00000 0.00108
2937 82.08765 932.62094 975.00000 0.00103
2938 82.11391 940.94832 939.00000 0.00106
2939 82.14017 953.30299 941.00000 0.00106
2940 82.16643 969.66383 906.00000 0.00110
2941 82.19269 988.22707 964.00000 0.00104
2942 82.21895 1004.36059 988.00000 0.00101
2943 82.24521 1011.03243 969.00000 0.00103
2944 82.27147 1004.54197 1035.00000 0.00097
2945 82.29773 989.26844 1017.00000 0.00098
2946 82.32399 972.22998 1033.00000 0.00097
2947 82.35025 957.83781 931.00000 0.00107
2948 82.37652 947.79480 938.00000 0.00107
2949 82.40278 942.13492 958.00000 0.00104
2950 82.42904 940.23890 956.00000 0.00105
2951 82.45530 941.61640 923.00000 0.00108
2952 82.48156 946.57656 945.00000 0.00106
2953 82.50782 956.68668 955.00000 0.00105
2954 82.53408 974.90880 994.00000 0.00101
2955 82.56034 1005.06534 970.00000 0.00103
2956 82.58660 1050.25480 1060.00000 0.00094
2957 82.61286 1110.25238 1085.00000 0.00092
2958 82.63912 1178.17171 1115.00000 0.00090
2959 82.66538 1236.58925 1255.00000 0.00080
2960 82.69164 1259.21344 1267.00000 0.00079
2961 82.71790 1232.23960 1211.00000 0.00083
2962 82.74416 1171.90820 1073.00000 0.00093
2963 82.77042 1104.24639 1081.00000 0.00093
2964 82.79668 1045.50155 1021.00000 0.00098
2965 82.82294 1001.61334 1010.00000 0.00099
2966 82.84921 972.16040 981.00000 0.00102
2967 82.87547 953.77053 974.00000 0.00103
2968 82.90173 942.69490 1003.00000 0.00100
2969 82.92799 935.94174 884.00000 0.00113
2970 82.95425 931.61239 938.00000 0.00107
2971 82.98051 928.66366 931.00000 0.00107
2972 83.00677 926.56537 893.00000 0.00112
2973 83.03303 925.04205 893.00000 0.00112
2974 83.05929 923.95230 896.00000 0.00112
2975 83.08555 923.22100 878.00000 0.00114
2976 83.11181 922.80748 893.00000 0.00112
2977 83.13807 922.71516 855.00000 0.00117
2978 83.16433 923.00224 930.00000 0.00108
2979 83.19059 923.82861 881.00000 0.00114
2980 83.21685 925.54962 936.00000 0.00107
2981 83.24311 928.85006 968.00000 0.00103
2982 83.26937 934.84677 927.00000 0.00108
2983 83.29564 945.00000 963.00000 0.00104
2984 83.32190 960.65493 964.00000 0.00104
2985 83.34816 982.17304 1000.00000 0.00100
2986 83.37442 1007.76345 1020.00000 0.00098
2987 83.40068 1032.04209 1019.00000 0.00098
2988 83.42694 1045.55772 1050.00000 0.00095
2989 83.45320 1040.57617 1006.00000 0.00099
2990 83.47946 1020.14018 987.00000 0.00101
2991 83.50572 994.15529 1055.00000 0.00095
2992 83.53198 970.19632 970.00000 0.00103
2993 83.55824 951.65814 912.00000 0.00110
2994 83.58450 939.12328 938.00000 0.00107
2995 83.61076 931.69224 917.00000 0.00109
2996 83.63702 928.07046 941.00000 0.00106
2997 83.66328 927.33670 938.00000 0.00107
2998 83.68954 929.32452 917.00000 0.00109
2999 83.71580 934.72721 931.00000 0.00107
3000 83.74206 944.78900 978.00000 0.00102
3001 83.76833 960.73125 1021.00000 0.00098
3002 83.79459 982.76328 981.00000 0.00102
3003 83.82085 1008.84472 1076.00000 0.00093
3004 83.84711 1033.19526 1147.00000 0.00087
3005 83.87337 1045.95495 1069.00000 0.00094
3006 83.89963 1039.49851 1071.00000 0.00093
3007 83.92589 1017.46972 1014.00000 0.00099
3008 83.95215 990.08765 1007.00000 0.00099
3009 83.97841 964.92075 986.00000 0.00101
3010 84.00467 945.28154 1015.00000 0.00099
3011 84.03093 931.64354 933.00000 0.00107
3012 84.05719 922.95836 907.00000 0.00110
3013 84.08345 917.69218 973.00000 0.00103
3014 84.10971 914.49498 929.00000 0.00108
3015 84.13597 912.45175 871.00000 0.00115
3016 84.16223 911.02704 879.00000 0.00114
3017 84.18849 909.95396 889.00000 0.00112
3018 84.21475 909.14458 899.00000 0.00111
3019 84.24102 908.51240 918.00000 0.00109
3020 84.26728 908.02420 861.00000 0.00116
3021 84.29354 907.66172 879.00000 0.00114
3022 84.31980 907.41688 857.00000 0.00117
3023 84.34606 907.29198 879.00000 0.00114
3024 84.37232 907.30605 908.00000 0.00110
3025 84.39858 907.50508 894.00000 0.00112
3026 84.42484 907.98074 857.00000 0.00117
3027 84.45110 908.88492 989.00000 0.00101
3028 84.47736 910.42135 917.00000 0.00109
3029 84.50362 912.79010 863.00000 0.00116
3030 84.52988 916.08789 887.00000 0.00113
3031 84.55614 920.11226 932.00000 0.00107
3032 84.58240 924.23566 913.00000 0.00110
3033 84.60866 927.24701 954.00000 0.00105
3034 84.63492 927.95958 941.00000 0.00106
3035 84.66118 926.53578 929.00000 0.00108
3036 84.68745 924.32995 867.00000 0.00115
3037 84.71371 922.56516 885.00000 0.00113
3038 84.73997 921.90529 969.00000 0.00103
3039 84.76623 922.63400 927.00000 0.00108
3040 84.79249 924.89131 929.00000 0.00108
3041 84.81875 928.93203 933.00000 0.00107
3042 84.84501 935.43136 944.00000 0.00106
3043 84.87127 945.81245 944.00000 0.00106
3044 84.89753 962.47444 1004.00000 0.00100
3045 84.92379 988.66479 981.00000 0.00102
3046 84.95005 1027.73231 1030.00000 0.00097
3047 84.97631 1081.77547 1073.00000 0.00093
3048 85.00257 1149.97634 1170.00000 0.00085
3049 85.02883 1226.48535 1252.00000 0.00080
3050 85.05509 1299.35330 1318.00000 0.00076
3051 85.08135 1359.66806 1453.00000 0.00069
3052 85.10761 1417.08175 1429.00000 0.00070
3053 85.13387 1489.96797 1506.00000 0.00066
3054 85.16014 1580.11557 1615.00000 0.00062
3055 85.18640 1660.05523 1736.00000 0.00058
3056 85.21266 1679.13678 1659.00000 0.00060
3057 85.23892 1607.39565 1613.00000 0.00062
3058 85.26518 1472.57745 1492.00000 0.00067
3059 85.29144 1324.10360 1288.00000 0.00078
3060 85.31770 1194.20238 1197.00000 0.00084
3061 85.34396 1095.45323 1192.00000 0.00084
3062 85.37022 1027.94772 1073.00000 0.00093
3063 85.39648 985.35271 1010.00000 0.00099
3064 85.42274 959.67076 929.00000 0.00108
3065 85.44900 944.18668 939.00000 0.00106
3066 85.47526 934.42903 904.00000 0.00111
3067 85.50152 927.91448 913.00000 0.00110
3068 85.52778 923.40235 884.00000 0.00113
3069 85.55404 920.38915 915.00000 0.00109
3070 85.58030 918.82190 926.00000 0.00108
3071 85.60656 919.05173 925.00000 0.00108
3072 85.63283 921.77131 897.00000 0.00111
3073 85.65909 928.05280 927.00000 0.00108
3074 85.68535 938.94788 984.00000 0.00102
3075 85.71161 954.87977 932.00000 0.00107
3076 85.73787 974.80560 957.00000 0.00104
3077 85.76413 995.06266 971.00000 0.00103
3078 85.79039 1008.70715 979.00000 0.00102
3079 85.81665 1008.38151 981.00000 0.00102
3080 85.84291 993.93576 984.00000 0.00102
3081 85.86917 972.61341 992.00000 0.00101
3082 85.89543 951.46089 916.00000 0.00109
3083 85.92169 934.19454 934.00000 0.00107
3084 85.94795 921.95172 911.00000 0.00110
3085 85.97421 914.39194 938.00000 0.00107
3086 86.00047 910.61546 859.00000 0.00116
3087 86.02673 909.89744 931.00000 0.00107
3088 86.05299 912.14898 924.00000 0.00108
3089 86.07926 918.06916 929.00000 0.00108
3090 86.10552 928.95993 957.00000 0.00104
3091 86.13178 946.14494 1003.00000 0.00100
3092 86.15804 970.00746 983.00000 0.00102
3093 86.18430 998.76140 1018.00000 0.00098
3094 86.21056 1026.95589 1119.00000 0.00089
3095 86.23682 1044.66267 1092.00000 0.00092
3096 86.26308 1042.43450 1082.00000 0.00092
3097 86.28934 1021.48536 1033.00000 0.00097
3098 86.31560 992.14128 1000.00000 0.00100
3099 86.34186 963.56480 932.00000 0.00107
3100 86.36812 940.28299 926.00000 0.00108
3101 86.39438 923.38058 924.00000 0.00108
3102 86.42064 912.03983 938.00000 0.00107
3103 86.44690 904.78590 908.00000 0.00110
3104 86.47316 900.21165 886.00000 0.00113
3105 86.49942 897.26043 819.00000 0.00122
3106 86.52568 895.26395 912.00000 0.00110
3107 86.55195 893.84488 862.00000 0.00116
3108 86.57821 892.79671 852.00000 0.00117
3109 86.60447 892.00161 899.00000 0.00111
3110 86.63073 891.38784 892.00000 0.00112
3111 86.65699 890.90991 861.00000 0.00116
3112 86.68325 890.53932 893.00000 0.00112
3113 86.70951 890.25522 918.00000 0.00109
3114 86.73577 890.04572 885.00000 0.00113
3115 86.76203 889.87904 859.00000 0.00116
3116 86.78829 889.79718 815.00000 0.00123
3117 86.81455 889.77380 934.00000 0.00107
3118 86.84081 889.80829 901.00000 0.00111
3119 86.86707 889.90232 885.00000 0.00113
3120 86.89333 890.05975 938.00000 0.00107
3121 86.91959 890.28686 823.00000 0.00122
3122 86.94585 890.59286 895.00000 0.00112
3123 86.97211 890.99057 891.00000 0.00112
3124 86.99837 891.49745 866.00000 0.00115
3125 87.02464 892.13718 830.00000 0.00120
3126 87.05090 892.94217 884.00000 0.00113
3127 87.07716 893.95817 864.00000 0.00116
3128 87.10342 895.25430 876.00000 0.00114
3129 87.12968 896.94687 874.00000 0.00114
3130 87.15594 899.25519 929.00000 0.00108
3131 87.18220 902.61846 931.00000 0.00107
3132 87.20846 907.89800 958.00000 0.00104
3133 87.23472 916.63632 1002.00000 0.00100
3134 87.26098 931.21904 989.00000 0.00101
3135 87.28724 954.64216 1005.00000 0.00100
3136 87.31350 989.58633 1011.00000 0.00099
3137 87.33976 1036.76887 1027.00000 0.00097
3138 87.36602 1092.72647 1100.00000 0.00091
3139 87.39228 1147.14298 1191.00000 0.00084
3140 87.41854 1181.42869 1232.00000 0.00081
3141 87.44480 1177.99966 1211.00000 0.00083
3142 87.47106 1139.01147 1163.00000 0.00086
3143 87.49733 1083.68705 1072.00000 0.00093
3144 87.52359 1029.32030 1129.00000 0.00089
3145 87.54985 984.63195 960.00000 0.00104
3146 87.57611 951.88052 946.00000 0.00106
3147 87.60237 929.71939 917.00000 0.00109
3148 87.62863 915.45209 930.00000 0.00108
3149 87.65489 906.43136 902.00000 0.00111
3150 87.68115 900.62116 921.00000 0.00109
3151 87.70741 896.70922 911.00000 0.00110
3152 87.73367 893.94726 925.00000 0.00108
3153 87.75993 891.93121 865.00000 0.00116
3154 87.78619 890.43339 860.00000 0.00116
3155 87.81245 889.33059 863.00000 0.00116
3156 87.83871 888.55841 930.00000 0.00108
3157 87.86497 888.10121 861.00000 0.00116
3158 87.89123 888.00082 839.00000 0.00119
3159 87.91749 888.38945 938.00000 0.00107
3160 87.94376 889.56124 823.00000 0.00122
3161 87.97002 892.06276 885.00000 0.00113
3162 87.99628 896.75516 894.00000 0.00112
3163 88.02254 904.73858 901.00000 0.00111
3164 88.04880 917.01886 921.00000 0.00109
3165 88.07506 933.95392 967.00000 0.00103
3166 88.10132 954.40736 978.00000 0.00102
3167 88.12758 974.80296 1026.00000 0.00097
3168 88.15384 988.44569 1024.00000 0.00098
3169 88.18010 988.39584 1019.00000 0.00098
3170 88.20636 974.51426 954.00000 0.00105
3171 88.23262 953.65923 941.00000 0.00106
3172 88.25888 932.67699 928.00000 0.00108
3173 88.28514 915.26807 888.00000 0.00113
3174 88.31140 902.69964 934.00000 0.00107
3175 88.33766 894.81219 858.00000 0.00117
3176 88.36392 890.88893 863.00000 0.00116
3177 88.39018 890.38030 865.00000 0.00116
3178 88.41645 893.39010 936.00000 0.00107
3179 88.44271 900.81474 882.00000 0.00113
3180 88.46897 914.12615 918.00000 0.00109
3181 88.49523 934.67982 923.00000 0.00108
3182 88.52149 962.64295 934.00000 0.00107
3183 88.54775 995.65998 1067.00000 0.00094
3184 88.57401 1027.23503 1025.00000 0.00098
3185 88.60027 1046.08306 1074.00000 0.00093
3186 88.62653 1042.04053 1030.00000 0.00097
3187 88.65279 1016.88514 1015.00000 0.00099
3188 88.67905 982.13861 1015.00000 0.00099
3189 88.70531 948.03197 988.00000 0.00101
3190 88.73157 919.82547 945.00000 0.00106
3191 88.75783 899.04549 849.00000 0.00118
3192 88.78409 885.01349 874.00000 0.00114
3193 88.81035 876.06842 850.00000 0.00118
3194 88.83661 870.47170 838.00000 0.00119
3195 88.86287 866.87749 805.00000 0.00124
3196 88.88914 864.44153 791.00000 0.00126
3197 88.91540 862.70027 834.00000 0.00120
3198 88.94166 861.43055 907.00000 0.00110
3199 88.96792 860.53755 858.00000 0.00117
3200 88.99418 859.99466 812.00000 0.00123
3201 89.02044 859.82184 815.00000 0.00123
3202 89.04670 860.09338 821.00000 0.00122
3203 89.07296 860.97984 876.00000 0.00114
3204 89.09922 862.84109 860.00000 0.00116
3205 89.12548 866.38316 781.00000 0.00128
3206 89.15174 872.84849 910.00000 0.00110
3207 89.17800 884.11608 869.00000 0.00115
3208 89.20426 902.49122 896.00000 0.00112
3209 89.23052 929.98100 931.00000 0.00107
3210 89.25678 967.04732 942.00000 0.00106
3211 89.28304 1010.98359 990.00000 0.00101
3212 89.30930 1053.89428 1093.00000 0.00091
3213 89.33557 1081.56474 1056.00000 0.00095
3214 89.36183 1080.11090 1051.00000 0.00095
3215 89.38809 1050.24071 1055.00000 0.00095
3216 89.41435 1006.43438 1037.00000 0.00096
3217 89.44061 962.56437 939.00000 0.00106
3218 89.46687 926.13593 910.00000 0.00110
3219 89.49313 899.67149 922.00000 0.00108
3220 89.51939 882.76056 854.00000 0.00117
3221 89.54565 873.75774 827.00000 0.00121
3222 89.57191 871.15904 839.00000 0.00119
3223 89.59817 874.46435 870.00000 0.00115
3224 89.62443 884.42129 944.00000 0.00106
3225 89.65069 902.65134 847.00000 0.00118
3226 89.67695 930.71418 937.00000 0.00107
3227 89.70321 968.76882 998.00000 0.00100
3228 89.72947 1013.98015 1026.00000 0.00097
3229 89.75573 1058.59422 1133.00000 0.00088
3230 89.78199 1089.42427 1131.00000 0.00088
3231 89.80826 1095.65004 1135.00000 0.00088
3232 89.83452 1081.20858 1080.00000 0.00093
3233 89.86078 1060.05166 1064.00000 0.00094
3234 89.88704 1041.78111 1083.00000 0.00092
3235 89.91330 1026.58638 1058.00000 0.00095
3236 89.93956 1007.83580 1033.00000 0.00097
3237 89.96582 980.68156 1040.00000 0.00096
3238 89.99208 948.20322 939.00000 0.00106
3239 90.01834 916.61762 919.00000 0.00109
3240 90.04460 889.91528 937.00000 0.00107
3241 90.07086 869.44599 829.00000 0.00121
3242 90.09712 854.96407 858.00000 0.00117
3243 90.12338 845.33929 871.00000 0.00115
3244 90.14964 839.18485 876.00000 0.00114
3245 90.17590 835.29689 838.00000 0.00119
3246 90.20216 832.82031 822.00000 0.00122
3247 90.22842 831.25776 824.00000 0.00121
3248 90.25468 830.38445 790.00000 0.00127
3249 90.28095 830.18277 894.00000 0.00112
3250 90.30721 830.82851 820.00000 0.00122
3251 90.33347 832.71380 780.00000 0.00128
3252 90.35973 836.45088 857.00000 0.00117
3253 90.38599 842.77530 860.00000 0.00116
3254 90.41225 852.28593 907.00000 0.00110
3255 90.43851 865.02748 808.00000 0.00124
3256 90.46477 879.95789 869.00000 0.00115
3257 90.49103 894.29101 892.00000 0.00112
3258 90.51729 903.24802 946.00000 0.00106
3259 90.54355 902.50051 871.00000 0.00115
3260 90.56981 892.67493 878.00000 0.00114
3261 90.59607 878.60180 917.00000 0.00109
3262 90.62233 864.73722 816.00000 0.00123
3263 90.64859 853.54377 871.00000 0.00115
3264 90.67485 845.85940 937.00000 0.00107
3265 90.70111 841.66057 877.00000 0.00114
3266 90.72738 840.63942 833.00000 0.00120
3267 90.75364 842.72277 837.00000 0.00119
3268 90.77990 848.42452 857.00000 0.00117
3269 90.80616 858.92249 925.00000 0.00108
3270 90.83242 875.75460 899.00000 0.00111
3271 90.85868 900.09345 915.00000 0.00109
3272 90.88494 931.68341 1014.00000 0.00099
3273 90.91120 967.53581 1005.00000 0.00100
3274 90.93746 1000.36679 1043.00000 0.00096
3275 90.96372 1018.52587 995.00000 0.00101
3276 90.98998 1012.97207 987.00000 0.00101
3277 91.01624 987.15483 997.00000 0.00100
3278 91.04250 952.86023 992.00000 0.00101
3279 91.06876 919.77339 961.00000 0.00104
3280 91.09502 892.67596 890.00000 0.00112
3281 91.12128 872.78795 822.00000 0.00122
3282 91.14754 859.34339 865.00000 0.00116
3283 91.17380 850.81836 858.00000 0.00117
3284 91.20007 845.65612 872.00000 0.00115
3285 91.22633 842.61221 851.00000 0.00118
3286 91.25259 840.85255 868.00000 0.00115
3287 91.27885 839.88232 871.00000 0.00115
3288 91.30511 839.42365 812.00000 0.00123
3289 91.33137 839.31950 817.00000 0.00122
3290 91.35763 839.47847 845.00000 0.00118
3291 91.38389 839.84830 822.00000 0.00122
3292 91.41015 840.40394 806.00000 0.00124
3293 91.43641 841.14792 822.00000 0.00122
3294 91.46267 842.13635 825.00000 0.00121
3295 91.48893 843.46846 780.00000 0.00128
3296 91.51519 845.33133 853.00000 0.00117
3297 91.54145 847.99629 828.00000 0.00121
3298 91.56771 851.77290 841.00000 0.00119
3299 91.59397 856.89399 830.00000 0.00120
3300 91.62023 863.33904 823.00000 0.00122
3301 91.64649 870.61125 905.00000 0.00110
3302 91.67276 877.46478 891.00000 0.00112
3303 91.69902 881.84782 857.00000 0.00117
3304 91.72528 882.02284 868.00000 0.00115
3305 91.75154 878.38213 899.00000 0.00111
3306 91.77780 872.98069 842.00000 0.00119
3307 91.80406 867.65537 918.00000 0.00109
3308 91.83032 863.38537 872.00000 0.00115
3309 91.85658 860.49527 876.00000 0.00114
3310 91.88284 858.91946 871.00000 0.00115
3311 91.90910 858.42042 870.00000 0.00115
3312 91.93536 858.77966 915.00000 0.00109
3313 91.96162 859.87059 804.00000 0.00124
3314 91.98788 861.70836 825.00000 0.00121
3315 92.01414 864.39648 900.00000 0.00111
3316 92.04040 868.02547 903.00000 0.00111
3317 92.06666 872.54064 895.00000 0.00112
3318 92.09292 877.58982 911.00000 0.00110
3319 92.11918 882.34848 822.00000 0.00122
3320 92.14545 885.54217 867.00000 0.00115
3321 92.17171 886.26862 937.00000 0.00107
3322 92.19797 885.00938 815.00000 0.00123
3323 92.22423 883.05026 840.00000 0.00119
3324 92.25049 881.28522 867.00000 0.00115
3325 92.27675 879.87044 828.00000 0.00121
3326 92.30301 878.47224 881.00000 0.00114
3327 92.32927 876.83770 893.00000 0.00112
3328 92.35553 875.12703 855.00000 0.00117
3329 92.38179 873.63390 871.00000 0.00115
3330 92.40805 872.52510 831.00000 0.00120
3331 92.43431 871.83905 880.00000 0.00114
3332 92.46057 871.53856 851.00000 0.00118
3333 92.48683 871.54836 820.00000 0.00122
3334 92.51309 871.78510 793.00000 0.00126
3335 92.53935 872.17971 863.00000 0.00116
3336 92.56561 872.68879 854.00000 0.00117
3337 92.59188 873.29830 892.00000 0.00112
3338 92.61814 874.02736 830.00000 0.00120
3339 92.64440 874.93897 856.00000 0.00117
3340 92.67066 876.15956 902.00000 0.00111
3341 92.69692 877.89731 873.00000 0.00115
3342 92.72318 880.44451 816.00000 0.00123
3343 92.74944 884.11869 890.00000 0.00112
3344 92.77570 889.14731 886.00000 0.00113
3345 92.80196 895.48904 953.00000 0.00105
3346 92.82822 902.61153 882.00000 0.00113
3347 92.85448 909.22121 879.00000 0.00114
3348 92.88074 913.23902 941.00000 0.00106
3349 92.90700 912.97852 951.00000 0.00105
3350 92.93326 908.92338 973.00000 0.00103
3351 92.95952 903.18612 959.00000 0.00104
3352 92.98578 897.65029 856.00000 0.00117
3353 93.01204 893.36551 913.00000 0.00110
3354 93.03830 890.77547 866.00000 0.00115
3355 93.06457 890.03079 894.00000 0.00112
3356 93.09083 891.29085 898.00000 0.00111
3357 93.11709 895.01129 910.00000 0.00110
3358 93.14335 902.14324 919.00000 0.00109
3359 93.16961 914.10655 902.00000 0.00111
3360 93.19587 932.51152 926.00000 0.00108
3361 93.22213 958.34148 976.00000 0.00102
3362 93.24839 991.00899 1049.00000 0.00095
3363 93.27465 1027.09273 1102.00000 0.00091
3364 93.30091 1058.89191 1092.00000 0.00092
3365 93.32717 1074.80366 1064.00000 0.00094
3366 93.35343 1066.82257 1108.00000 0.00090
3367 93.37969 1038.95709 1060.00000 0.00094
3368 93.40595 1002.74883 1036.00000 0.00097
3369 93.43221 967.64467 948.00000 0.00105
3370 93.45847 938.48921 979.00000 0.00102
3371 93.48473 916.74250 925.00000 0.00108
3372 93.51099 901.82447 911.00000 0.00110
3373 93.53726 892.18951 931.00000 0.00107
3374 93.56352 886.14366 893.00000 0.00112
3375 93.58978 882.31196 923.00000 0.00108
3376 93.61604 879.77181 861.00000 0.00116
3377 93.64230 877.98472 883.00000 0.00113
3378 93.66856 876.66613 943.00000 0.00106
3379 93.69482 875.67453 882.00000 0.00113
3380 93.72108 874.94259 883.00000 0.00113
3381 93.74734 874.44399 883.00000 0.00113
3382 93.77360 874.18410 876.00000 0.00114
3383 93.79986 874.20805 903.00000 0.00111
3384 93.82612 874.62405 897.00000 0.00111
3385 93.85238 875.63810 805.00000 0.00124
3386 93.87864 877.58428 837.00000 0.00119
3387 93.90490 880.91793 870.00000 0.00115
3388 93.93116 886.12985 832.00000 0.00120
3389 93.95742 893.55838 871.00000 0.00115
3390 93.98369 903.11486 924.00000 0.00108
3391 94.00995 913.96294 968.00000 0.00103
3392 94.03621 924.07571 879.00000 0.00114
3393 94.06247 930.23025 880.00000 0.00114
3394 94.08873 929.79710 849.00000 0.00118
3395 94.11499 923.46505 895.00000 0.00112
3396 94.14125 914.49559 925.00000 0.00108
3397 94.16751 905.87564 905.00000 0.00110
3398 94.19377 899.31950 928.00000 0.00108
3399 94.22003 895.59799 886.00000 0.00113
3400 94.24629 895.02372 887.00000 0.00113
3401 94.27255 897.91811 900.00000 0.00111
3402 94.29881 905.05686 872.00000 0.00115
3403 94.32507 917.98309 907.00000 0.00110
3404 94.35133 939.01304 1037.00000 0.00096
3405 94.37759 970.77312 958.00000 0.00104
3406 94.40385 1015.24075 1106.00000 0.00090
3407 94.43011 1072.43035 1099.00000 0.00091
3408 94.45638 1138.74374 1252.00000 0.00080
3409 94.48264 1204.94622 1202.00000 0.00083
3410 94.50890 1256.37616 1247.00000 0.00080
3411 94.53516 1282.84104 1226.00000 0.00082
3412 94.56142 1290.59778 1300.00000 0.00077
3413 94.58768 1294.52259 1335.00000 0.00075
3414 94.61394 1301.33783 1281.00000 0.00078
3415 94.64020 1303.26480 1263.00000 0.00079
3416 94.66646 1283.56481 1276.00000 0.00078
3417 94.69272 1234.02114 1278.00000 0.00078
3418 94.71898 1165.04295 1134.00000 0.00088
3419 94.74524 1093.40710 1048.00000 0.00095
3420 94.77150 1030.33984 1056.00000 0.00095
3421 94.79776 980.54814 987.00000 0.00101
3422 94.82402 944.45367 940.00000 0.00106
3423 94.85028 920.04555 907.00000 0.00110
3424 94.87654 904.34685 910.00000 0.00110
3425 94.90280 894.49623 882.00000 0.00113
3426 94.92907 888.31204 914.00000 0.00109
3427 94.95533 884.40028 889.00000 0.00112
3428 94.98159 882.02070 885.00000 0.00113
3429 95.00785 880.91259 865.00000 0.00116
3430 95.03411 881.18058 846.00000 0.00118
3431 95.06037 883.23793 876.00000 0.00114
3432 95.08663 887.73969 878.00000 0.00114
3433 95.11289 895.41929 943.00000 0.00106
3434 95.13915 906.77946 933.00000 0.00107
3435 95.16541 921.65506 921.00000 0.00109
3436 95.19167 938.67154 884.00000 0.00113
3437 95.21793 954.58532 952.00000 0.00105
3438 95.24419 964.15711 901.00000 0.00111
3439 95.27045 962.79412 925.00000 0.00108
3440 95.29671 951.03661 938.00000 0.00107
3441 95.32297 933.92988 976.00000 0.00102
3442 95.34923 916.41203 892.00000 0.00112
3443 95.37550 901.32034 883.00000 0.00113
3444 95.40176 889.74127 902.00000 0.00111
3445 95.42802 881.65891 889.00000 0.00112
3446 95.45428 876.47867 857.00000 0.00117
3447 95.48054 873.44639 885.00000 0.00113
3448 95.50680 871.92350 883.00000 0.00113
3449 95.53306 871.49520 850.00000 0.00118
3450 95.55932 871.94611 876.00000 0.00114
3451 95.58558 873.16435 829.00000 0.00121
3452 95.61184 875.02509 864.00000 0.00116
3453 95.63810 877.27582 863.00000 0.00116
3454 95.66436 879.42327 897.00000 0.00111
3455 95.69062 880.72128 897.00000 0.00111
3456 95.71688 880.56578 878.00000 0.00114
3457 95.74314 879.07307 871.00000 0.00115
3458 95.76940 876.98410 892.00000 0.00112
3459 95.79566 874.92548 877.00000 0.00114
3460 95.82192 873.23277 896.00000 0.00112
3461 95.84819 871.99683 866.00000 0.00115
3462 95.87445 871.18554 898.00000 0.00111
3463 95.90071 870.73901 892.00000 0.00112
3464 95.92697 870.59866 844.00000 0.00118
3465 95.95323 870.70829 850.00000 0.00118
3466 95.97949 871.02413 838.00000 0.00119
3467 96.00575 871.51953 894.00000 0.00112
3468 96.03201 872.18375 847.00000 0.00118
3469 96.05827 873.02031 871.00000 0.00115
3470 96.08453 874.04895 891.00000 0.00112
3471 96.11079 875.31388 842.00000 0.00119
3472 96.13705 876.90367 916.00000 0.00109
3473 96.16331 878.99156 902.00000 0.00111
3474 96.18957 881.90455 879.00000 0.00114
3475 96.21583 886.21672 891.00000 0.00112
3476 96.24209 892.83043 918.00000 0.00109
3477 96.26835 902.96517 943.00000 0.00106
3478 96.29461 917.95145 982.00000 0.00102
3479 96.32088 938.76947 952.00000 0.00105
3480 96.34714 965.36717 955.00000 0.00105
3481 96.37340 995.80870 992.00000 0.00101
3482 96.39966 1025.21180 1063.00000 0.00094
3483 96.42592 1045.23059 1050.00000 0.00095
3484 96.45218 1047.50591 1021.00000 0.00098
3485 96.47844 1031.28688 1035.00000 0.00097
3486 96.50470 1004.27690 1029.00000 0.00097
3487 96.53096 975.19694 1018.00000 0.00098
3488 96.55722 949.48763 996.00000 0.00100
3489 96.58348 929.47170 947.00000 0.00106
3490 96.60974 915.46579 911.00000 0.00110
3491 96.63600 906.66880 880.00000 0.00114
3492 96.66226 901.88948 892.00000 0.00112
3493 96.68852 900.06087 930.00000 0.00108
3494 96.71478 900.47907 944.00000 0.00106
3495 96.74104 902.79425 880.00000 0.00114
3496 96.76730 906.84463 900.00000 0.00111
3497 96.79357 912.42768 906.00000 0.00110
3498 96.81983 919.05942 940.00000 0.00106
3499 96.84609 925.71949 882.00000 0.00113
3500 96.87235 930.73804 895.00000 0.00112
3501 96.89861 932.50435 910.00000 0.00110
3502 96.92487 930.94981 929.00000 0.00108
3503 96.95113 927.60164 900.00000 0.00111
3504 96.97739 924.04884 895.00000 0.00112
3505 97.00365 921.07045 885.00000 0.00113
3506 97.02991 918.70287 885.00000 0.00113
3507 97.05617 916.73800 909.00000 0.00110
3508 97.08243 915.11742 935.00000 0.00107
3509 97.10869 913.96939 872.00000 0.00115
3510 97.13495 913.37968 941.00000 0.00106
3511 97.16121 913.34165 918.00000 0.00109
3512 97.18747 913.79834 886.00000 0.00113
3513 97.21373 914.67297 916.00000 0.00109
3514 97.24000 915.88636 964.00000 0.00104
3515 97.26626 917.37225 921.00000 0.00109
3516 97.29252 919.09086 904.00000 0.00111
3517 97.31878 921.04143 880.00000 0.00114
3518 97.34504 923.27970 942.00000 0.00106
3519 97.37130 925.94764 922.00000 0.00108
3520 97.39756 929.31706 883.00000 0.00113
3521 97.42382 933.83234 958.00000 0.00104
3522 97.45008 940.11431 988.00000 0.00101
3523 97.47634 948.87301 967.00000 0.00103
3524 97.50260 960.69114 1052.00000 0.00095
3525 97.52886 975.68722 1030.00000 0.00097
3526 97.55512 993.08983 1040.00000 0.00096
3527 97.58138 1010.70193 1037.00000 0.00096
3528 97.60764 1024.45178 1062.00000 0.00094
3529 97.63390 1029.47991 1046.00000 0.00096
3530 97.66016 1023.95608 1018.00000 0.00098
3531 97.68642 1011.06140 975.00000 0.00103
3532 97.71269 995.71428 1015.00000 0.00099
3533 97.73895 981.42203 995.00000 0.00101
3534 97.76521 969.89758 957.00000 0.00104
3535 97.79147 961.61168 979.00000 0.00102
3536 97.81773 956.28620 917.00000 0.00109
3537 97.84399 953.36240 960.00000 0.00104
3538 97.87025 952.23059 936.00000 0.00107
3539 97.89651 952.46364 932.00000 0.00107
3540 97.92277 953.83480 940.00000 0.00106
3541 97.94903 956.24276 994.00000 0.00101
3542 97.97529 959.58205 903.00000 0.00111
3543 98.00155 963.59681 949.00000 0.00105
3544 98.02781 967.72338 988.00000 0.00101
3545 98.05407 970.96701 987.00000 0.00101
3546 98.08033 972.15172 961.00000 0.00104
3547 98.10659 970.82344 958.00000 0.00104
3548 98.13285 967.73099 936.00000 0.00107
3549 98.15911 964.05579 957.00000 0.00104
3550 98.18538 960.65092 959.00000 0.00104
3551 98.21164 957.93920 1005.00000 0.00100
3552 98.23790 956.04210 980.00000 0.00102
3553 98.26416 954.89908 934.00000 0.00107
3554 98.29042 954.34928 909.00000 0.00110
3555 98.31668 954.26011 941.00000 0.00106
3556 98.34294 954.48705 926.00000 0.00108
3557 98.36920 954.94302 978.00000 0.00102
3558 98.39546 955.57959 975.00000 0.00103
3559 98.42172 956.37533 962.00000 0.00104
3560 98.44798 957.31707 947.00000 0.00106
3561 98.47424 958.42373 918.00000 0.00109
3562 98.50050 959.69517 931.00000 0.00107
3563 98.52676 961.14144 953.00000 0.00105
3564 98.55302 962.77387 991.00000 0.00101
3565 98.57928 964.60465 1010.00000 0.00099
3566 98.60554 966.64649 963.00000 0.00104
3567 98.63181 968.91255 1000.00000 0.00100
3568 98.65807 971.41629 979.00000 0.00102
3569 98.68433 974.17152 1034.00000 0.00097
3570 98.71059 977.19246 1019.00000 0.00098
3571 98.73685 980.49388 962.00000 0.00104
3572 98.76311 984.09148 1027.00000 0.00097
3573 98.78937 988.00228 989.00000 0.00101
3574 98.81563 992.24549 978.00000 0.00102
3575 98.84189 996.84378 983.00000 0.00102
3576 98.86815 1001.82554 978.00000 0.00102
3577 98.89441 1007.22948 997.00000 0.00100
3578 98.92067 1013.11444 970.00000 0.00103
3579 98.94693 1019.58039 1000.00000 0.00100
3580 98.97319 1026.81046 1008.00000 0.00099
3581 98.99945 1035.14545 1009.00000 0.00099
3582 99.02571 1045.19430 1020.00000 0.00098
3583 99.05197 1057.95686 1086.00000 0.00092
3584 99.07823 1074.89040 1096.00000 0.00091
3585 99.10450 1097.80522 1129.00000 0.00089
3586 99.13076 1128.51999 1182.00000 0.00085
3587 99.15702 1168.19430 1176.00000 0.00085
3588 99.18328 1216.50558 1238.00000 0.00081
3589 99.20954 1270.56618 1263.00000 0.00079
3590 99.23580 1323.56686 1319.00000 0.00076
3591 99.26206 1364.94053 1374.00000 0.00073
3592 99.28832 1386.57302 1425.00000 0.00070
3593 99.31458 1391.14202 1375.00000 0.00073
3594 99.34084 1388.66929 1386.00000 0.00072
3595 99.36710 1385.71095 1423.00000 0.00070
3596 99.39336 1380.36272 1359.00000 0.00074
3597 99.41962 1364.62764 1417.00000 0.00071
3598 99.44588 1333.15830 1318.00000 0.00076
3599 99.47214 1289.95089 1274.00000 0.00078
3600 99.49840 1243.76559 1196.00000 0.00084
3601 99.52466 1201.26401 1141.00000 0.00088
3602 99.55092 1165.59062 1120.00000 0.00089
3603 99.57719 1137.42055 1138.00000 0.00088
3604 99.60345 1116.01148 1181.00000 0.00085
3605 99.62971 1099.88910 1043.00000 0.00096
3606 99.65597 1087.49115 1044.00000 0.00096
3607 99.68223 1077.54870 1096.00000 0.00091
3608 99.70849 1069.25116 1095.00000 0.00091
3609 99.73475 1062.24802 1072.00000 0.00093
3610 99.76101 1056.58619 1102.00000 0.00091
3611 99.78727 1052.64946 1010.00000 0.00099
3612 99.81353 1051.12022 1124.00000 0.00089
3613 99.83979 1052.93465 1055.00000 0.00095
3614 99.86605 1059.18863 1061.00000 0.00094
3615 99.89231 1070.96598 1074.00000 0.00093
3616 99.91857 1089.09586 1098.00000 0.00091
3617 99.94483 1113.85332 1122.00000 0.00089
3618 99.97109 1144.58130 1144.00000 0.00087
3619 99.99735 1179.43211 1153.00000 0.00087

#==============================================================================
# Reflections Data Block
#==============================================================================
_reflns_number_total             313
_reflns_limit_h_min              0
_reflns_limit_h_max              0
_reflns_limit_k_min              1
_reflns_limit_k_max              21
_reflns_limit_l_min              16
_reflns_limit_l_max              14
_reflns_d_resolution_high        12.39727
_reflns_d_resolution_low         1.00226

loop_
_refln_index_h
_refln_index_k
_refln_index_l
_refln_d_spacing
_refln_F_squared_calc
_refln_F_squared_meas
_refln_F_squared_sigma
_refln_observed_status
1 1 1 12.39727 21.72 23.06 310.04 o
0 0 2 10.73635 9.26 7.77 158.34 o
0 2 2 7.59175 0.65 0.72 3.28 o
3 1 1 6.47426 1.54 1.40 32.77 o
2 2 2 6.19864 1.85 1.69 47.94 o
0 0 4 5.36818 4.30 4.65 97.23 o
3 3 1 4.92618 5.31 4.69 144.33 o
0 4 2 4.80144 2.81 2.71 60.52 o
4 2 2 4.38310 3.38 3.21 77.16 o
3 3 3 4.13242 3.66 3.70 83.53 o
5 1 1 4.13242 2.67 2.71 61.02 o
0 4 4 3.79587 3.02 2.93 61.95 o
5 3 1 3.62955 6.06 6.16 109.11 o
4 4 2 3.57878 16.17 16.51 431.19 o
0 0 6 3.57878 9.62 9.83 256.68 o
0 6 2 3.39513 1.13 1.11 8.55 o
5 3 3 3.27456 9.95 10.18 244.34 o
6 2 2 3.23713 0.40 0.40 0.26 o
4 4 4 3.09932 8.94 8.94 215.92 o
5 5 1 3.00678 4.67 4.74 135.17 o
7 1 1 3.00678 18.06 18.37 523.38 o
0 6 4 2.97773 0.06 0.06 0.36 o
6 4 2 2.86941 7.87 8.20 174.52 o
5 5 3 2.79551 17.87 18.08 501.95 o
7 3 1 2.79551 0.81 0.82 22.70 o
0 0 8 2.68409 9.46 9.47 217.89 o
7 3 3 2.62331 2.05 1.97 19.95 o
6 4 4 2.60395 16.16 16.68 444.94 o
0 8 2 2.60395 4.81 4.97 132.48 o
8 2 2 2.53058 4.35 4.43 77.78 o
0 6 6 2.53058 1.82 1.85 32.55 o
5 5 5 2.47945 15.17 13.80 420.42 o
7 5 1 2.47945 6.50 5.92 180.25 o
6 6 2 2.46309 0.02 0.02 0.14 o
0 8 4 2.40072 1.64 1.66 11.53 o
7 5 3 2.35694 2.23 2.28 52.98 o
9 1 1 2.35694 11.50 11.75 273.29 o
8 4 2 2.34286 0.00 0.00 0.00 o
6 6 4 2.28900 10.40 11.15 214.08 o
9 3 1 2.25095 0.64 0.63 1.02 o
8 4 4 2.19155 2.94 2.82 25.67 o
7 5 5 2.15809 5.85 6.21 119.57 o
9 3 3 2.15809 0.97 1.03 19.78 o
7 7 1 2.15809 23.58 25.05 482.02 o
0 8 6 2.14727 23.62 23.54 551.99 o
0 0 10 2.14727 8.97 8.94 209.62 o
8 6 2 2.10557 20.78 21.25 581.05 o
0 10 2 2.10557 1.16 1.18 32.38 o
7 7 3 2.07584 1.70 1.82 32.37 o
9 5 1 2.07584 7.17 7.69 136.62 o
6 6 6 2.06621 3.03 3.14 20.14 o
10 2 2 2.06621 0.28 0.28 1.83 o
9 5 3 2.00234 0.30 0.29 0.42 o
8 6 4 1.99369 0.34 0.33 0.43 o
0 10 4 1.99369 0.26 0.25 0.32 o
10 4 2 1.96018 7.24 7.20 114.59 o
7 7 5 1.93613 0.59 0.56 8.91 o
11 1 1 1.93613 6.19 5.89 93.05 o
0 8 8 1.89794 12.45 13.12 254.40 o
9 5 5 1.87608 1.30 1.32 33.20 o
9 7 1 1.87608 36.04 36.55 919.17 o
11 3 1 1.87608 5.41 5.48 137.86 o
8 8 2 1.86896 13.71 14.27 147.32 o
10 4 4 1.86896 8.44 8.78 90.62 o
8 6 6 1.84127 3.05 3.05 54.82 o
0 10 6 1.84127 7.43 7.44 133.83 o
9 7 3 1.82129 4.04 4.22 97.46 o
11 3 3 1.82129 19.09 19.97 460.70 o
10 6 2 1.81477 0.05 0.05 0.68 o
8 8 4 1.78939 1.46 1.44 16.84 o
0 0 12 1.78939 4.37 4.30 50.25 o
7 7 7 1.77104 3.01 3.13 3.50 o
11 5 1 1.77104 1.08 1.12 1.25 o
0 12 2 1.76505 0.00 0.00 0.00 o
10 6 4 1.74167 5.22 5.16 55.80 o
12 2 2 1.74167 1.68 1.66 18.00 o
9 7 5 1.72473 3.57 3.61 83.68 o
11 5 3 1.72473 28.09 28.44 658.53 o
0 12 4 1.69757 3.41 3.54 20.12 o
9 9 1 1.68187 12.35 13.72 120.44 o
8 8 6 1.67674 12.85 13.74 334.96 o
12 4 2 1.67674 27.75 29.66 723.08 o
0 10 8 1.67674 14.32 15.30 373.07 o
10 8 2 1.65666 5.44 5.54 28.49 o
9 9 3 1.64206 1.62 1.57 32.81 o
11 5 5 1.64206 17.13 16.53 346.34 o
11 7 1 1.64206 6.28 6.05 126.88 o
13 1 1 1.64206 2.27 2.19 45.91 o
10 6 6 1.63728 0.63 0.62 7.67 o
12 4 4 1.61857 29.62 29.68 520.66 o
9 7 7 1.60495 9.59 9.44 137.48 o
11 7 3 1.60495 5.20 5.12 74.60 o
13 3 1 1.60495 3.69 3.64 52.96 o
10 8 4 1.60048 0.01 0.00 0.03 o
0 12 6 1.60048 0.13 0.12 0.68 o
12 6 2 1.58299 5.06 4.95 29.51 o
9 9 5 1.57024 2.38 2.57 23.43 o
13 3 3 1.57024 8.79 9.48 86.42 o
8 8 8 1.54966 3.73 3.87 9.37 o
11 7 5 1.53769 3.13 3.23 16.91 o
13 5 1 1.53769 5.21 5.36 28.13 o
12 6 4 1.53376 27.20 27.64 499.89 o
0 0 14 1.53376 3.36 3.41 61.70 o
10 8 6 1.51835 6.74 6.68 69.25 o
0 10 10 1.51835 3.45 3.42 35.47 o
0 14 2 1.51835 0.89 0.88 9.12 o
13 5 3 1.50709 21.61 22.66 356.20 o
11 9 1 1.50709 3.41 3.58 56.29 o
10 10 2 1.50339 0.05 0.06 0.73 o
14 2 2 1.50339 0.43 0.44 5.74 o
0 12 8 1.48886 2.45 2.41 6.71 o
9 9 7 1.47824 8.69 8.64 91.91 o
11 9 3 1.47824 4.66 4.63 49.31 o
12 8 2 1.47475 0.00 0.00 0.01 o
0 14 4 1.47475 0.49 0.48 2.58 o
12 6 6 1.46103 4.68 4.73 36.66 o
10 10 4 1.46103 1.33 1.34 10.41 o
14 4 2 1.46103 4.32 4.36 33.81 o
11 7 7 1.45099 1.04 1.06 16.32 o
13 5 5 1.45099 17.04 17.43 268.58 o
13 7 1 1.45099 1.28 1.31 20.15 o
12 8 4 1.43471 7.15 7.25 58.99 o
11 9 5 1.42519 1.81 1.78 20.39 o
13 7 3 1.42519 2.68 2.64 30.29 o
15 1 1 1.42519 12.00 11.82 135.42 o
10 8 8 1.42206 6.06 6.09 37.27 o
14 4 4 1.42206 7.75 7.79 47.69 o
0 14 6 1.40975 0.67 0.65 1.77 o
15 3 1 1.40072 1.49 1.49 5.06 o
10 10 6 1.39775 0.00 0.00 0.02 o
14 6 2 1.39775 0.00 0.00 0.05 o
9 9 9 1.37747 2.36 2.46 11.14 o
13 7 5 1.37747 2.74 2.86 12.93 o
15 3 3 1.37747 0.42 0.44 1.97 o
11 11 1 1.37747 0.21 0.21 0.97 o
12 8 6 1.37465 0.47 0.47 0.25 o
0 12 10 1.37465 0.53 0.53 0.27 o
14 6 4 1.36352 4.37 4.35 32.86 o
12 10 2 1.36352 5.06 5.03 37.98 o
11 9 7 1.35535 1.69 1.70 16.31 o
11 11 3 1.35535 9.83 9.86 94.53 o
13 9 1 1.35535 1.13 1.13 10.87 o
15 5 1 1.35535 1.23 1.23 11.83 o
0 0 16 1.34204 8.50 8.08 63.53 o
13 9 3 1.33425 1.52 1.55 10.85 o
15 5 3 1.33425 1.00 1.02 7.11 o
12 10 4 1.33168 17.62 18.42 227.13 o
0 14 8 1.33168 3.43 3.59 44.26 o
0 16 2 1.33168 8.09 8.45 104.24 o
10 10 8 1.32155 1.96 2.02 13.46 o
14 8 2 1.32155 3.26 3.36 22.43 o
16 2 2 1.32155 3.92 4.04 26.98 o
13 7 7 1.31411 1.74 1.85 5.40 o
11 11 5 1.31411 6.29 6.72 19.57 o
14 6 6 1.31165 0.04 0.04 0.10 o
12 8 8 1.30197 1.69 1.73 3.26 o
0 16 4 1.30197 2.19 2.23 4.21 o
13 9 5 1.29485 1.09 1.11 8.11 o
15 5 5 1.29485 1.20 1.21 8.86 o
15 7 1 1.29485 11.79 11.95 87.39 o
14 8 4 1.29250 0.00 0.00 0.03 o
16 4 2 1.29250 0.07 0.07 0.51 o
12 10 6 1.28324 3.43 3.28 2.41 o
11 9 9 1.27642 0.49 0.47 1.01 o
15 7 3 1.27642 1.11 1.06 2.28 o
16 4 4 1.26529 0.85 0.85 0.44 o
0 12 12 1.26529 0.25 0.25 0.13 o
11 11 7 1.25875 0.19 0.20 1.47 o
13 11 1 1.25875 3.10 3.23 24.27 o
17 1 1 1.25875 13.63 14.19 106.66 o
12 12 2 1.25660 6.91 7.36 6.60 o
0 16 6 1.25660 4.79 5.11 4.59 o
14 8 6 1.24808 8.58 8.87 69.38 o
16 6 2 1.24808 1.69 1.75 13.70 o
0 14 10 1.24808 0.88 0.91 7.09 o
13 9 7 1.24180 3.71 3.75 56.77 o
13 11 3 1.24180 26.20 26.50 401.25 o
15 7 5 1.24180 2.53 2.56 38.80 o
17 3 1 1.24180 3.36 3.40 51.47 o
10 10 10 1.23973 0.02 0.02 0.17 o
14 10 2 1.23973 0.31 0.31 3.37 o
12 12 4 1.23154 20.78 20.66 204.37 o
15 9 1 1.22551 12.05 12.20 66.11 o
17 3 3 1.22551 0.08 0.08 0.46 o
12 10 8 1.22352 0.04 0.04 0.09 o
16 6 4 1.22352 0.17 0.17 0.41 o
14 10 4 1.21565 3.66 3.56 4.00 o
13 11 5 1.20985 24.57 24.57 285.54 o
15 9 3 1.20985 2.18 2.18 25.32 o
17 5 1 1.20985 0.55 0.55 6.39 o
0 16 8 1.20036 15.30 15.32 126.34 o
11 11 9 1.19477 0.40 0.41 0.16 o
15 7 7 1.19477 9.08 9.28 3.07 o
17 5 3 1.19477 2.03 2.07 0.70 o
14 8 8 1.19293 7.64 7.92 83.88 o
12 12 6 1.19293 7.16 7.42 78.57 o
16 8 2 1.19293 16.85 17.47 184.91 o
0 0 18 1.19293 4.37 4.53 47.96 o
16 6 6 1.18563 0.21 0.22 0.07 o
0 18 2 1.18563 2.18 2.25 0.49 o
13 9 9 1.18025 1.68 1.68 6.82 o
15 9 5 1.18025 4.56 4.54 18.48 o
14 10 6 1.17847 0.01 0.01 0.02 o
18 2 2 1.17847 0.40 0.41 0.55 o
16 8 4 1.17143 6.62 6.59 24.65 o
13 11 7 1.16624 3.23 3.18 34.33 o
13 13 1 1.16624 0.55 0.54 5.87 o
17 5 5 1.16624 4.68 4.61 49.75 o
17 7 1 1.16624 16.79 16.54 178.46 o
0 14 12 1.16452 0.16 0.15 1.15 o
0 18 4 1.16452 0.02 0.02 0.14 o
12 10 10 1.15773 1.13 1.13 6.27 o
14 12 2 1.15773 4.77 4.76 26.48 o
18 4 2 1.15773 4.06 4.05 22.55 o
13 13 3 1.15272 5.92 6.09 23.66 o
15 11 1 1.15272 1.67 1.72 6.70 o
17 7 3 1.15272 2.83 2.92 11.33 o
12 12 8 1.14450 1.46 1.45 1.02 o
15 9 7 1.13965 18.77 19.09 28.42 o
15 11 3 1.13965 3.09 3.15 4.69 o
14 12 4 1.13805 20.38 20.62 304.15 o
16 8 6 1.13805 20.19 20.44 301.38 o
18 4 4 1.13805 8.65 8.76 129.15 o
0 16 10 1.13805 7.97 8.07 118.99 o
14 10 8 1.13171 3.57 3.53 17.04 o
16 10 2 1.13171 2.78 2.75 13.27 o
0 18 6 1.13171 2.60 2.57 12.41 o
11 11 11 1.12702 0.60 0.61 2.19 o
13 13 5 1.12702 8.73 8.92 32.13 o
17 7 5 1.12702 1.03 1.05 3.80 o
19 1 1 1.12702 2.16 2.21 7.95 o
18 6 2 1.12548 0.17 0.17 0.40 o
13 11 9 1.11481 3.15 3.22 29.03 o
15 11 5 1.11481 1.54 1.58 14.24 o
17 9 1 1.11481 16.75 17.11 154.43 o
19 3 1 1.11481 3.29 3.36 30.35 o
16 10 4 1.11331 0.34 0.35 1.19 o
14 12 6 1.10737 5.47 5.52 12.23 o
18 6 4 1.10737 4.06 4.11 9.09 o
17 9 3 1.10298 4.39 4.42 25.07 o
19 3 3 1.10298 11.16 11.23 63.73 o
16 8 8 1.09577 20.80 20.68 163.30 o
13 13 7 1.09152 0.59 0.60 3.30 o
15 9 9 1.09152 9.24 9.43 51.61 o
17 7 7 1.09152 10.25 10.47 57.28 o
19 5 1 1.09152 0.30 0.30 1.65 o
12 12 10 1.09011 5.33 5.44 6.12 o
0 18 8 1.09011 6.17 6.29 7.08 o
16 10 6 1.08454 2.67 2.68 10.46 o
0 14 14 1.08454 0.53 0.53 2.07 o
18 8 2 1.08454 4.00 4.02 15.69 o
15 11 7 1.08041 1.24 1.26 9.73 o
17 9 5 1.08041 2.34 2.37 18.40 o
15 13 1 1.08041 0.75 0.76 5.91 o
19 5 3 1.08041 12.84 13.04 101.08 o
14 10 10 1.07904 0.00 0.00 0.01 o
18 6 6 1.07904 0.00 0.00 0.01 o
14 14 2 1.07904 0.25 0.25 0.42 o
0 16 12 1.07364 2.16 2.16 3.30 o
0 0 20 1.07364 1.02 1.02 1.56 o
15 13 3 1.06963 2.06 2.04 2.68 o
14 12 8 1.06831 0.32 0.31 0.12 o
18 8 4 1.06831 0.12 0.12 0.09 o
16 12 2 1.06831 0.00 0.00 0.00 o
0 20 2 1.06831 0.32 0.31 0.12 o
14 14 4 1.06306 1.21 1.23 0.59 o
20 2 2 1.06306 2.18 2.20 1.04 o
13 11 11 1.05917 8.28 8.46 52.92 o
17 11 1 1.05917 3.08 3.15 19.72 o
19 5 5 1.05917 5.00 5.11 31.95 o
19 7 1 1.05917 2.32 2.37 14.83 o
16 12 4 1.05279 3.97 3.91 15.12 o
0 20 4 1.05279 1.57 1.54 5.97 o
13 13 9 1.04901 0.34 0.34 2.42 o
15 13 5 1.04901 3.39 3.42 24.26 o
17 9 7 1.04901 21.26 21.46 152.06 o
17 11 3 1.04901 1.23 1.24 8.78 o
19 7 3 1.04901 3.60 3.64 25.77 o
16 10 8 1.04776 18.41 18.36 145.08 o
20 4 2 1.04776 14.55 14.52 114.70 o
18 8 6 1.04281 6.36 6.27 35.87 o
0 18 10 1.04281 3.19 3.15 18.01 o
15 11 9 1.03914 1.34 1.34 0.51 o
14 14 6 1.03792 0.01 0.01 0.07 o
18 10 2 1.03792 0.07 0.07 0.13 o
12 12 12 1.03311 3.71 3.75 26.88 o
20 4 4 1.03311 13.01 13.15 94.14 o
17 11 5 1.02954 2.74 2.70 5.57 o
19 7 5 1.02954 0.67 0.66 1.36 o
16 12 6 1.02836 0.54 0.53 0.26 o
0 20 6 1.02836 0.22 0.21 0.11 o
14 12 10 1.02367 4.90 4.98 18.83 o
18 10 4 1.02367 2.29 2.32 8.79 o
20 6 2 1.02367 2.26 2.30 8.68 o
15 13 7 1.02020 0.26 0.26 0.24 o
19 9 1 1.02020 1.65 1.64 1.28 o
21 1 1 1.02020 0.40 0.40 0.31 o
17 9 9 1.01111 10.63 10.69 62.52 o
19 9 3 1.01111 2.82 2.83 16.56 o
15 15 1 1.01111 8.85 8.90 52.06 o
21 3 1 1.01111 2.87 2.88 16.85 o
18 8 8 1.00999 5.71 5.70 23.13 o
0 16 14 1.00999 5.75 5.74 23.28 o
20 6 4 1.00999 10.41 10.39 42.17 o
16 10 10 1.00555 2.36 2.37 3.77 o
14 14 8 1.00555 1.17 1.17 1.87 o
16 14 2 1.00555 4.27 4.28 6.82 o
13 13 11 1.00226 9.02 9.04 8.83 o
17 11 7 1.00226 2.35 2.35 2.30 o
15 15 3 1.00226 1.85 1.86 1.83 o
19 7 7 1.00226 0.63 0.63 0.62 o
17 13 1 1.00226 2.10 2.10 2.06 o
21 3 3 1.00226 6.38 6.39 6.26 o
# start Validation Reply Form
_vrf_ATOM006_I                   
;
PROBLEM: _atom_site_U_iso_or_equiv is missing
RESPONSE: Thermal parameters quoted in Beq
;
_vrf_PLAT601_I                   
;
PROBLEM: Structure Contains Solvent Accessible VOIDS of .       5753 Ang3  
RESPONSE: Desolvated open-framework structure. This is expected.
;
# end Validation Reply Form
#--eof--eof--eof--eof--eof--eof--eof--eof--eof--eof--eof--eof--eof--eof--eof--#
_chemical_name_systematic        UiO-66(Ce)_BDC-DS
_chemical_name_common            UiO-66(Ce)_BDC-Desolvated
_exptl_crystal_colour            'yellowish white'
