####################################################################### 
# 
# This file contains crystal structure data downloaded from the 
# Cambridge Structural Database (CSD) hosted by the Cambridge 
# Crystallographic Data Centre (CCDC).
# 
# Full information about CCDC data access policies and citation 
# guidelines are available at http://www.ccdc.cam.ac.uk/access/V1 
# 
# Audit and citation data items may have been added by the CCDC. 
# Please retain this information to preserve the provenance of 
# this file and to allow appropriate attribution of the data. 
# 
#######################################################################

data_SUM-8
_audit_block_doi                 10.5517/ccdc.csd.cc29jpr9
_database_code_depnum_ccdc_archive 'CCDC 2131211'
loop_
_citation_id
_citation_doi
_citation_year
1 10.1016/j.seppur.2022.120700 2022
loop_
_audit_author_name
_audit_author_address
'Chong Liu'
;Sichuan University
China
;
_audit_update_record             
;
2021-12-27 deposited with the CCDC.	2023-06-17 downloaded from the CCDC.
;
_audit_creation_date             2021-09-03
_audit_creation_method           
;
Olex2 1.5
(compiled 2021.08.20 svn.r13c46975 for OlexSys, GUI svn.r6394)
;
_shelx_SHELXL_version_number     2018/3
_chemical_name_common            ?
_chemical_name_systematic        ?
_chemical_formula_moiety         'C84 H48 N12 O38 Zr6, 0.667(H18 O6)'
_chemical_formula_sum            'C84 H60 N12 O42 Zr6'
_chemical_formula_weight         2456.76
_chemical_melting_point          ?
loop_
_atom_type_symbol
_atom_type_description
_atom_type_scat_dispersion_real
_atom_type_scat_dispersion_imag
_atom_type_scat_source
C C 0.0033 0.0016 'International Tables Vol C Tables 4.2.6.8 and 6.1.1.4'
H H 0.0000 0.0000 'International Tables Vol C Tables 4.2.6.8 and 6.1.1.4'
N N 0.0061 0.0033 'International Tables Vol C Tables 4.2.6.8 and 6.1.1.4'
O O 0.0106 0.0060 'International Tables Vol C Tables 4.2.6.8 and 6.1.1.4'
Zr Zr -2.9673 0.5597 'International Tables Vol C Tables 4.2.6.8 and 6.1.1.4'

_shelx_space_group_comment       
;
The symmetry employed for this shelxl refinement is uniquely defined
by the following loop, which should always be used as a source of
symmetry information in preference to the above space-group names.
They are only intended as comments.
;
_space_group_crystal_system      cubic
_space_group_IT_number           225
_space_group_name_H-M_alt        'F m -3 m'
_space_group_name_Hall           '-F 4 2 3'
loop_
_space_group_symop_operation_xyz
'x, y, z'
'-x, -y, z'
'-x, y, -z'
'x, -y, -z'
'z, x, y'
'z, -x, -y'
'-z, -x, y'
'-z, x, -y'
'y, z, x'
'-y, z, -x'
'y, -z, -x'
'-y, -z, x'
'y, x, -z'
'-y, -x, -z'
'y, -x, z'
'-y, x, z'
'x, z, -y'
'-x, z, y'
'-x, -z, -y'
'x, -z, y'
'z, y, -x'
'z, -y, x'
'-z, y, x'
'-z, -y, -x'
'x, y+1/2, z+1/2'
'-x, -y+1/2, z+1/2'
'-x, y+1/2, -z+1/2'
'x, -y+1/2, -z+1/2'
'z, x+1/2, y+1/2'
'z, -x+1/2, -y+1/2'
'-z, -x+1/2, y+1/2'
'-z, x+1/2, -y+1/2'
'y, z+1/2, x+1/2'
'-y, z+1/2, -x+1/2'
'y, -z+1/2, -x+1/2'
'-y, -z+1/2, x+1/2'
'y, x+1/2, -z+1/2'
'-y, -x+1/2, -z+1/2'
'y, -x+1/2, z+1/2'
'-y, x+1/2, z+1/2'
'x, z+1/2, -y+1/2'
'-x, z+1/2, y+1/2'
'-x, -z+1/2, -y+1/2'
'x, -z+1/2, y+1/2'
'z, y+1/2, -x+1/2'
'z, -y+1/2, x+1/2'
'-z, y+1/2, x+1/2'
'-z, -y+1/2, -x+1/2'
'x+1/2, y, z+1/2'
'-x+1/2, -y, z+1/2'
'-x+1/2, y, -z+1/2'
'x+1/2, -y, -z+1/2'
'z+1/2, x, y+1/2'
'z+1/2, -x, -y+1/2'
'-z+1/2, -x, y+1/2'
'-z+1/2, x, -y+1/2'
'y+1/2, z, x+1/2'
'-y+1/2, z, -x+1/2'
'y+1/2, -z, -x+1/2'
'-y+1/2, -z, x+1/2'
'y+1/2, x, -z+1/2'
'-y+1/2, -x, -z+1/2'
'y+1/2, -x, z+1/2'
'-y+1/2, x, z+1/2'
'x+1/2, z, -y+1/2'
'-x+1/2, z, y+1/2'
'-x+1/2, -z, -y+1/2'
'x+1/2, -z, y+1/2'
'z+1/2, y, -x+1/2'
'z+1/2, -y, x+1/2'
'-z+1/2, y, x+1/2'
'-z+1/2, -y, -x+1/2'
'x+1/2, y+1/2, z'
'-x+1/2, -y+1/2, z'
'-x+1/2, y+1/2, -z'
'x+1/2, -y+1/2, -z'
'z+1/2, x+1/2, y'
'z+1/2, -x+1/2, -y'
'-z+1/2, -x+1/2, y'
'-z+1/2, x+1/2, -y'
'y+1/2, z+1/2, x'
'-y+1/2, z+1/2, -x'
'y+1/2, -z+1/2, -x'
'-y+1/2, -z+1/2, x'
'y+1/2, x+1/2, -z'
'-y+1/2, -x+1/2, -z'
'y+1/2, -x+1/2, z'
'-y+1/2, x+1/2, z'
'x+1/2, z+1/2, -y'
'-x+1/2, z+1/2, y'
'-x+1/2, -z+1/2, -y'
'x+1/2, -z+1/2, y'
'z+1/2, y+1/2, -x'
'z+1/2, -y+1/2, x'
'-z+1/2, y+1/2, x'
'-z+1/2, -y+1/2, -x'
'-x, -y, -z'
'x, y, -z'
'x, -y, z'
'-x, y, z'
'-z, -x, -y'
'-z, x, y'
'z, x, -y'
'z, -x, y'
'-y, -z, -x'
'y, -z, x'
'-y, z, x'
'y, z, -x'
'-y, -x, z'
'y, x, z'
'-y, x, -z'
'y, -x, -z'
'-x, -z, y'
'x, -z, -y'
'x, z, y'
'-x, z, -y'
'-z, -y, x'
'-z, y, -x'
'z, -y, -x'
'z, y, x'
'-x, -y+1/2, -z+1/2'
'x, y+1/2, -z+1/2'
'x, -y+1/2, z+1/2'
'-x, y+1/2, z+1/2'
'-z, -x+1/2, -y+1/2'
'-z, x+1/2, y+1/2'
'z, x+1/2, -y+1/2'
'z, -x+1/2, y+1/2'
'-y, -z+1/2, -x+1/2'
'y, -z+1/2, x+1/2'
'-y, z+1/2, x+1/2'
'y, z+1/2, -x+1/2'
'-y, -x+1/2, z+1/2'
'y, x+1/2, z+1/2'
'-y, x+1/2, -z+1/2'
'y, -x+1/2, -z+1/2'
'-x, -z+1/2, y+1/2'
'x, -z+1/2, -y+1/2'
'x, z+1/2, y+1/2'
'-x, z+1/2, -y+1/2'
'-z, -y+1/2, x+1/2'
'-z, y+1/2, -x+1/2'
'z, -y+1/2, -x+1/2'
'z, y+1/2, x+1/2'
'-x+1/2, -y, -z+1/2'
'x+1/2, y, -z+1/2'
'x+1/2, -y, z+1/2'
'-x+1/2, y, z+1/2'
'-z+1/2, -x, -y+1/2'
'-z+1/2, x, y+1/2'
'z+1/2, x, -y+1/2'
'z+1/2, -x, y+1/2'
'-y+1/2, -z, -x+1/2'
'y+1/2, -z, x+1/2'
'-y+1/2, z, x+1/2'
'y+1/2, z, -x+1/2'
'-y+1/2, -x, z+1/2'
'y+1/2, x, z+1/2'
'-y+1/2, x, -z+1/2'
'y+1/2, -x, -z+1/2'
'-x+1/2, -z, y+1/2'
'x+1/2, -z, -y+1/2'
'x+1/2, z, y+1/2'
'-x+1/2, z, -y+1/2'
'-z+1/2, -y, x+1/2'
'-z+1/2, y, -x+1/2'
'z+1/2, -y, -x+1/2'
'z+1/2, y, x+1/2'
'-x+1/2, -y+1/2, -z'
'x+1/2, y+1/2, -z'
'x+1/2, -y+1/2, z'
'-x+1/2, y+1/2, z'
'-z+1/2, -x+1/2, -y'
'-z+1/2, x+1/2, y'
'z+1/2, x+1/2, -y'
'z+1/2, -x+1/2, y'
'-y+1/2, -z+1/2, -x'
'y+1/2, -z+1/2, x'
'-y+1/2, z+1/2, x'
'y+1/2, z+1/2, -x'
'-y+1/2, -x+1/2, z'
'y+1/2, x+1/2, z'
'-y+1/2, x+1/2, -z'
'y+1/2, -x+1/2, -z'
'-x+1/2, -z+1/2, y'
'x+1/2, -z+1/2, -y'
'x+1/2, z+1/2, y'
'-x+1/2, z+1/2, -y'
'-z+1/2, -y+1/2, x'
'-z+1/2, y+1/2, -x'
'z+1/2, -y+1/2, -x'
'z+1/2, y+1/2, x'

_cell_length_a                   29.6983(12)
_cell_length_b                   29.6983(12)
_cell_length_c                   29.6983(12)
_cell_angle_alpha                90
_cell_angle_beta                 90
_cell_angle_gamma                90
_cell_volume                     26194(3)
_cell_formula_units_Z            4
_cell_measurement_reflns_used    5295
_cell_measurement_temperature    193.00
_cell_measurement_theta_max      27.047
_cell_measurement_theta_min      2.275
_shelx_estimated_absorpt_T_max   0.974
_shelx_estimated_absorpt_T_min   0.969
_exptl_absorpt_coefficient_mu    0.266
_exptl_absorpt_correction_T_max  0.745553
_exptl_absorpt_correction_T_min  0.672867
_exptl_absorpt_correction_type   multi-scan
_exptl_absorpt_process_details   
;
 TWINABS-2012/1 (Bruker,2012) was used for absorption correction.
 
For component 1:
 wR2(int) was 0.0925 before and 0.0664 after correction.
 
For component 2:
 wR2(int) was 0.1697 before and 0.0692 after correction.
 The Ratio of minimum to maximum transmission is 0.90.

Final HKLF 4 output contains 73929 reflections, Rint = 0.0867
 (32050 with I > 3sig(I), Rint = 0.0605)
;
_exptl_absorpt_special_details   ?
_exptl_crystal_colour            ?
_exptl_crystal_density_diffrn    0.623
_exptl_crystal_density_meas      ?
_exptl_crystal_density_method    ?
_exptl_crystal_description       block
_exptl_crystal_F_000             4896
_exptl_crystal_size_max          0.12
_exptl_crystal_size_mid          0.1
_exptl_crystal_size_min          0.1
_exptl_transmission_factor_max   ?
_exptl_transmission_factor_min   ?
_diffrn_reflns_av_R_equivalents  ?
_diffrn_reflns_av_unetI/netI     0.0537
_diffrn_reflns_Laue_measured_fraction_full 0.990
_diffrn_reflns_Laue_measured_fraction_max 0.992
_diffrn_reflns_limit_h_max       22
_diffrn_reflns_limit_h_min       0
_diffrn_reflns_limit_k_max       27
_diffrn_reflns_limit_k_min       0
_diffrn_reflns_limit_l_max       38
_diffrn_reflns_limit_l_min       2
_diffrn_reflns_number            5122
_diffrn_reflns_point_group_measured_fraction_full 0.990
_diffrn_reflns_point_group_measured_fraction_max 0.992
_diffrn_reflns_theta_full        25.242
_diffrn_reflns_theta_max         27.489
_diffrn_reflns_theta_min         2.274
_diffrn_ambient_temperature      193.00
_diffrn_detector_area_resol_mean ?
_diffrn_measured_fraction_theta_full 0.990
_diffrn_measured_fraction_theta_max 0.992
_diffrn_measurement_device_type  'Bruker APEX-II CCD'
_diffrn_measurement_method       '\f and \w scans'
_diffrn_radiation_type           MoK\a
_diffrn_radiation_wavelength     0.71073
_diffrn_source                   ?
_diffrn_source_current           40.0
_diffrn_source_power             2.0
_diffrn_source_voltage           50.0
_diffrn_standards_number         0
_reflns_Friedel_coverage         0.000
_reflns_Friedel_fraction_full    .
_reflns_Friedel_fraction_max     .
_reflns_number_gt                4421
_reflns_number_total             5122
_reflns_special_details          
;
 Structure factors included contributions from the .fab file.
 
 _reflns_Friedel_fraction is defined as the number of unique
 Friedel pairs measured divided by the number that would be
 possible theoretically, ignoring centric projections and
 systematic absences. Completness statistics refer to single and
 composite reflections containing twin component 1 only.
;
_reflns_threshold_expression     'I > 2\s(I)'
_computing_cell_refinement       'SAINT V8.40A (Bruker, 2019)'
_computing_data_collection       ?
_computing_data_reduction        'SAINT V8.40A (Bruker, 2019)'
_computing_molecular_graphics    'Olex2 1.5 (Dolomanov et al., 2009)'
_computing_publication_material  'Olex2 1.5 (Dolomanov et al., 2009)'
_computing_structure_refinement  'SHELXL 2018/3 (Sheldrick, 2015)'
_computing_structure_solution    'SHELXT  (Sheldrick, 2015)'
_refine_diff_density_max         0.366
_refine_diff_density_min         -0.481
_refine_diff_density_rms         0.065
_refine_ls_extinction_coef       .
_refine_ls_extinction_method     none
_refine_ls_goodness_of_fit_ref   1.083
_refine_ls_hydrogen_treatment    constr
_refine_ls_matrix_type           full
_refine_ls_number_parameters     53
_refine_ls_number_reflns         5122
_refine_ls_number_restraints     117
_refine_ls_R_factor_all          0.0611
_refine_ls_R_factor_gt           0.0477
_refine_ls_restrained_S_all      1.197
_refine_ls_shift/su_max          0.002
_refine_ls_shift/su_mean         0.000
_refine_ls_structure_factor_coef Fsqd
_refine_ls_weighting_details     
'w=1/[\s^2^(Fo^2^)+(0.0582P)^2^+51.6116P] where P=(Fo^2^+2Fc^2^)/3'
_refine_ls_weighting_scheme      calc
_refine_ls_wR_factor_gt          0.1181
_refine_ls_wR_factor_ref         0.1278
_refine_special_details          
;
 Refined as a 2-component twin.
;
_olex2_refinement_description    
;
1. Twinned data refinement
 Scales: 0.658(3)
 0.342(3)
2. Fixed Uiso
 At 1.2 times of:
  All C(H) groups
 At 1.5 times of:
  All O(H,H,H) groups
3. Restrained distances
 C2-C3 = C3-C4
 1.39 with sigma of 0.02
 C3-C4 = C4-C5
 1.39 with sigma of 0.02
 C5-N1
 1.42 with sigma of 0.002
 N1-N1_$1
 1.25 with sigma of 0.005
 N1-O4
 1.3 with sigma of 0.02
 C2-C4
 2.408 with sigma of 0.04
 C3-C5
 2.408 with sigma of 0.04
4. Uiso/Uaniso restraints and constraints
All non-hydrogen atoms have similar U: within 2A with sigma of 0.01 and sigma
for terminal atoms of 0.02 within 2A
All non-hydrogen atoms restrained to be isotropic: with sigma of 0.01 and sigma
for terminal atoms of 0.02
5. Others
 Fixed Sof: N1(0.25) O3(0.08333) H3C(0.08333) H3B(0.08333) H3A(0.08333)
 O4(0.125)
6.a Riding coordinates:
 O3(H3C,H3B,H3A)
6.b Aromatic/amide H refined with riding coordinates:
 C3(H3), C4(H4)
;
_atom_sites_solution_hydrogens   mixed
_atom_sites_solution_primary     dual
_atom_sites_solution_secondary   ?
loop_
_atom_site_label
_atom_site_type_symbol
_atom_site_fract_x
_atom_site_fract_y
_atom_site_fract_z
_atom_site_U_iso_or_equiv
_atom_site_adp_type
_atom_site_occupancy
_atom_site_site_symmetry_order
_atom_site_calc_flag
_atom_site_refinement_flags_posn
_atom_site_refinement_flags_adp
_atom_site_refinement_flags_occupancy
_atom_site_disorder_assembly
_atom_site_disorder_group
Zr1 Zr 0.500000 0.41678(2) 0.500000 0.0270(2) Uani 1 8 d S TU P . .
O1 O 0.54083(18) 0.45917(18) 0.54083(18) 0.069(2) Uani 1 6 d S TU P . .
O2 O 0.43564(16) 0.37913(14) 0.500000 0.0794(13) Uani 1 2 d S TU P . .
C1 C 0.39404(18) 0.39404(18) 0.500000 0.090(3) Uani 1 4 d S TU P . .
C2 C 0.3581(2) 0.3581(2) 0.500000 0.128(4) Uani 1 4 d DS TU P . .
N1 N 0.2483(5) 0.27098(15) 0.500000 0.200(8) Uani 0.5 2 d DS TU P A 1
C3 C 0.3138(3) 0.3698(4) 0.500000 0.176(4) Uani 1 2 d DS TU P . .
H3 H 0.304990 0.400536 0.500000 0.212 Uiso 1 2 calc R U P . .
C4 C 0.2810(5) 0.3350(5) 0.500000 0.213(6) Uani 1 2 d DS TU P A .
H4 H 0.250104 0.343239 0.500000 0.255 Uiso 1 2 calc R U P . .
C5 C 0.2916(4) 0.2916(4) 0.500000 0.207(7) Uani 1 4 d DS TU P . .
O3 O 0.3988(4) 0.3988(4) 0.6012(4) 0.160(11) Uani 0.5 6 d S TU P . .
H3C H 0.376106 0.388660 0.623890 0.240 Uiso 0.1667 2 d R U P . .
H3B H 0.378926 0.417250 0.582750 0.240 Uiso 0.1667 2 d R U P . .
H3A H 0.418466 0.377300 0.594090 0.240 Uiso 0.0833 1 d R U P . .
O4 O 0.2093(9) 0.2907(9) 0.4783(15) 0.206(11) Uani 0.25 2 d DS TU P A 1

loop_
_atom_site_aniso_label
_atom_site_aniso_U_11
_atom_site_aniso_U_22
_atom_site_aniso_U_33
_atom_site_aniso_U_23
_atom_site_aniso_U_13
_atom_site_aniso_U_12
Zr1 0.0349(3) 0.0111(3) 0.0349(3) 0.000 0.000 0.000
O1 0.069(2) 0.069(2) 0.069(2) -0.042(3) 0.042(3) -0.042(3)
O2 0.081(3) 0.056(2) 0.101(3) 0.000 0.000 -0.047(2)
C1 0.082(4) 0.082(4) 0.107(6) 0.000 0.000 -0.063(5)
C2 0.107(5) 0.107(5) 0.169(9) 0.000 0.000 -0.085(6)
N1 0.157(11) 0.189(11) 0.253(12) 0.000 0.000 -0.088(10)
C3 0.101(6) 0.187(8) 0.241(10) 0.000 0.000 -0.096(6)
C4 0.152(8) 0.213(10) 0.273(11) 0.000 0.000 -0.100(8)
C5 0.181(7) 0.181(7) 0.258(12) 0.000 0.000 -0.094(10)
O3 0.160(11) 0.160(11) 0.160(11) 0.041(8) 0.041(8) -0.041(8)
O4 0.192(11) 0.192(11) 0.235(16) 0.009(9) -0.009(9) -0.071(13)

_geom_special_details            
;
 All esds (except the esd in the dihedral angle between two l.s. planes)
 are estimated using the full covariance matrix.  The cell esds are taken
 into account individually in the estimation of esds in distances, angles
 and torsion angles; correlations between esds in cell parameters are only
 used when they are defined by crystal symmetry.  An approximate (isotropic)
 treatment of cell esds is used for estimating esds involving l.s. planes.
;
loop_
_geom_bond_atom_site_label_1
_geom_bond_atom_site_label_2
_geom_bond_distance
_geom_bond_site_symmetry_2
_geom_bond_publ_flag
Zr1 Zr1 3.4954(8) 101_666 ?
Zr1 Zr1 3.4954(8) 9 ?
Zr1 Zr1 3.4954(8) 5 ?
Zr1 Zr1 3.4954(8) 105_666 ?
Zr1 O1 2.127(3) 100_655 ?
Zr1 O1 2.127(3) 98_556 ?
Zr1 O1 2.127(3) . ?
Zr1 O1 2.127(3) 3_656 ?
Zr1 O2 2.214(4) 21_556 ?
Zr1 O2 2.214(4) 23_655 ?
Zr1 O2 2.214(4) . ?
Zr1 O2 2.214(4) 3_656 ?
O2 C1 1.312(6) . ?
C1 C2 1.511(11) . ?
C2 C3 1.360(12) . ?
C2 C3 1.361(12) 13_556 ?
N1 N1 1.250(9) 74 ?
N1 C5 1.423(4) . ?
N1 O4 1.45(3) 86_556 ?
N1 O4 1.45(3) . ?
C3 H3 0.9500 . ?
C3 C4 1.418(13) . ?
C4 H4 0.9500 . ?
C4 C5 1.329(16) . ?
O3 H3C 1.0017 . ?
O3 H3B 0.9734 . ?
O3 H3A 0.8906 110 ?
O3 H3A 0.8906 114_566 ?
O3 H3A 0.8905 . ?
O3 H3A 0.8906 11_566 ?
O3 H3A 0.8906 8_656 ?
O3 H3A 0.8906 118_656 ?

loop_
_geom_angle_atom_site_label_1
_geom_angle_atom_site_label_2
_geom_angle_atom_site_label_3
_geom_angle
_geom_angle_site_symmetry_1
_geom_angle_site_symmetry_3
_geom_angle_publ_flag
Zr1 Zr1 Zr1 90.0 101_666 5 ?
Zr1 Zr1 Zr1 60.0 9 5 ?
Zr1 Zr1 Zr1 60.001(1) 105_666 5 ?
Zr1 Zr1 Zr1 60.001(1) 101_666 9 ?
Zr1 Zr1 Zr1 90.0 105_666 9 ?
Zr1 Zr1 Zr1 60.0 105_666 101_666 ?
O1 Zr1 Zr1 89.1(2) 100_655 105_666 ?
O1 Zr1 Zr1 89.1(2) . 9 ?
O1 Zr1 Zr1 34.77(11) . 101_666 ?
O1 Zr1 Zr1 89.1(2) 3_656 105_666 ?
O1 Zr1 Zr1 89.1(2) 3_656 101_666 ?
O1 Zr1 Zr1 89.1(2) . 5 ?
O1 Zr1 Zr1 34.77(11) 98_556 5 ?
O1 Zr1 Zr1 34.77(11) 100_655 101_666 ?
O1 Zr1 Zr1 34.77(11) 3_656 5 ?
O1 Zr1 Zr1 34.77(11) 98_556 105_666 ?
O1 Zr1 Zr1 34.77(11) 100_655 9 ?
O1 Zr1 Zr1 89.1(2) 100_655 5 ?
O1 Zr1 Zr1 34.77(11) 3_656 9 ?
O1 Zr1 Zr1 89.1(2) 98_556 101_666 ?
O1 Zr1 Zr1 34.77(11) . 105_666 ?
O1 Zr1 Zr1 89.1(2) 98_556 9 ?
O1 Zr1 O1 69.5(2) . 100_655 ?
O1 Zr1 O1 107.4(5) 100_655 98_556 ?
O1 Zr1 O1 69.5(2) . 98_556 ?
O1 Zr1 O1 69.5(2) 100_655 3_656 ?
O1 Zr1 O1 107.4(5) . 3_656 ?
O1 Zr1 O1 69.5(2) 98_556 3_656 ?
O1 Zr1 O2 142.26(5) . . ?
O1 Zr1 O2 142.26(5) . 23_655 ?
O1 Zr1 O2 78.9(2) 3_656 . ?
O1 Zr1 O2 78.9(2) 100_655 . ?
O1 Zr1 O2 78.9(2) 3_656 23_655 ?
O1 Zr1 O2 142.26(5) 98_556 . ?
O1 Zr1 O2 78.9(2) 100_655 21_556 ?
O1 Zr1 O2 78.9(2) 98_556 23_655 ?
O1 Zr1 O2 142.26(5) 3_656 21_556 ?
O1 Zr1 O2 78.9(2) 98_556 3_656 ?
O1 Zr1 O2 142.26(5) 100_655 3_656 ?
O1 Zr1 O2 78.9(2) . 3_656 ?
O1 Zr1 O2 142.26(5) 3_656 3_656 ?
O1 Zr1 O2 78.9(2) . 21_556 ?
O1 Zr1 O2 142.26(5) 98_556 21_556 ?
O1 Zr1 O2 142.26(5) 100_655 23_655 ?
O2 Zr1 Zr1 110.92(9) 21_556 9 ?
O2 Zr1 Zr1 75.33(14) 23_655 5 ?
O2 Zr1 Zr1 75.33(14) 3_656 105_666 ?
O2 Zr1 Zr1 110.92(9) . 5 ?
O2 Zr1 Zr1 110.92(9) 3_656 5 ?
O2 Zr1 Zr1 165.33(14) 23_655 101_666 ?
O2 Zr1 Zr1 110.92(9) 23_655 105_666 ?
O2 Zr1 Zr1 165.33(14) 3_656 9 ?
O2 Zr1 Zr1 110.92(9) . 101_666 ?
O2 Zr1 Zr1 165.33(14) 21_556 5 ?
O2 Zr1 Zr1 75.32(14) . 9 ?
O2 Zr1 Zr1 110.92(9) 21_556 105_666 ?
O2 Zr1 Zr1 110.92(9) 23_655 9 ?
O2 Zr1 Zr1 75.33(14) 21_556 101_666 ?
O2 Zr1 Zr1 165.33(14) . 105_666 ?
O2 Zr1 Zr1 110.92(9) 3_656 101_666 ?
O2 Zr1 O2 75.23(12) 23_655 3_656 ?
O2 Zr1 O2 75.23(12) . 21_556 ?
O2 Zr1 O2 75.23(12) 21_556 3_656 ?
O2 Zr1 O2 75.23(12) . 23_655 ?
O2 Zr1 O2 119.3(3) 23_655 21_556 ?
O2 Zr1 O2 119.3(3) . 3_656 ?
Zr1 O1 Zr1 110.5(2) . 101_666 ?
Zr1 O1 Zr1 110.5(2) . 105_666 ?
Zr1 O1 Zr1 110.5(2) 105_666 101_666 ?
C1 O2 Zr1 130.0(4) . . ?
O2 C1 O2 129.4(7) 13_556 . ?
O2 C1 C2 115.3(3) 13_556 . ?
O2 C1 C2 115.3(3) . . ?
C3 C2 C1 120.2(6) 13_556 . ?
C3 C2 C1 120.2(6) . . ?
C3 C2 C3 119.7(12) . 13_556 ?
N1 N1 C5 110.8(19) 74 . ?
N1 N1 O4 117.9(18) 74 86_556 ?
N1 N1 O4 117.9(18) 74 . ?
C5 N1 O4 123.2(5) . 86_556 ?
C5 N1 O4 123.2(5) . . ?
O4 N1 O4 53(4) . 86_556 ?
C2 C3 H3 120.8 . . ?
C2 C3 C4 118.5(13) . . ?
C4 C3 H3 120.8 . . ?
C3 C4 H4 118.5 . . ?
C5 C4 C3 123.1(16) . . ?
C5 C4 H4 118.5 . . ?
N1 C5 N1 39.1(9) . 13_556 ?
N1 C5 N1 39.1(9) . 110 ?
N1 C5 N1 0.0(7) 13_556 110 ?
C4 C5 N1 101.8(6) 13_556 13_556 ?
C4 C5 N1 101.8(6) . . ?
C4 C5 N1 140.9(12) . 13_556 ?
C4 C5 N1 140.9(12) 13_556 . ?
C4 C5 N1 101.8(6) 13_556 110 ?
C4 C5 N1 140.9(12) . 110 ?
C4 C5 C4 117.2(17) 13_556 . ?
H3C O3 H3B 98.0 . . ?
H3C O3 H3A 82.6 . 110 ?
H3C O3 H3A 91.6 . 114_566 ?
H3C O3 H3A 91.6 . 11_566 ?
H3C O3 H3A 82.6 . 8_656 ?
H3C O3 H3A 112.5 . . ?
H3C O3 H3A 112.5 . 118_656 ?
H3B O3 H3A 100.3 . 8_656 ?
H3B O3 H3A 132.0 . 114_566 ?
H3B O3 H3A 132.0 . . ?
H3B O3 H3A 100.3 . 118_656 ?
H3B O3 H3A 20.5 . 11_566 ?
H3B O3 H3A 20.5 . 110 ?
H3A O3 H3A 152.2 . 110 ?
H3A O3 H3A 84.9 . 114_566 ?
H3A O3 H3A 152.2 11_566 114_566 ?
H3A O3 H3A 119.0 . 8_656 ?
H3A O3 H3A 34.5 8_656 114_566 ?
H3A O3 H3A 34.5 11_566 110 ?
H3A O3 H3A 34.5 . 118_656 ?
H3A O3 H3A 152.2 8_656 118_656 ?
H3A O3 H3A 84.8 11_566 118_656 ?
H3A O3 H3A 119.0 . 11_566 ?
H3A O3 H3A 119.0 114_566 118_656 ?
H3A O3 H3A 119.0 110 114_566 ?
H3A O3 H3A 119.0 8_656 11_566 ?
H3A O3 H3A 84.8 8_656 110 ?
H3A O3 H3A 119.0 110 118_656 ?
N1 O4 N1 32.4(12) . 86_556 ?
N1 O4 N1 0.0(7) 86_556 181 ?
N1 O4 N1 32.4(12) . 181 ?

loop_
_geom_torsion_atom_site_label_1
_geom_torsion_atom_site_label_2
_geom_torsion_atom_site_label_3
_geom_torsion_atom_site_label_4
_geom_torsion
_geom_torsion_site_symmetry_1
_geom_torsion_site_symmetry_2
_geom_torsion_site_symmetry_3
_geom_torsion_site_symmetry_4
_geom_torsion_publ_flag
Zr1 O2 C1 O2 0.0 . . . 13_556 ?
Zr1 O2 C1 C2 180.0 . . . . ?
O2 C1 C2 C3 180.0 . . . . ?
O2 C1 C2 C3 180.0 13_556 . . 13_556 ?
O2 C1 C2 C3 0.0 . . . 13_556 ?
O2 C1 C2 C3 0.0 13_556 . . . ?
C1 C2 C3 C4 180.0 . . . . ?
C2 C3 C4 C5 0.0 . . . . ?
N1 N1 C5 N1 0.0 74 . . 13_556 ?
N1 N1 C5 N1 0.0 74 . . 110 ?
N1 N1 C5 C4 180.0 74 . . . ?
N1 N1 C5 C4 0.0 74 . . 13_556 ?
N1 N1 O4 N1 23.5(18) 74 . . 86_556 ?
N1 N1 O4 N1 23.5(18) 74 . . 181 ?
C3 C2 C3 C4 0.0 13_556 . . . ?
C3 C4 C5 N1 180.0 . . . . ?
C3 C4 C5 N1 180.0 . . . 13_556 ?
C3 C4 C5 N1 180.0 . . . 110 ?
C3 C4 C5 C4 0.0 . . . 13_556 ?
C5 N1 O4 N1 169.3(7) . . . 181 ?
C5 N1 O4 N1 169.3(7) . . . 86_556 ?
O4 N1 C5 N1 -148(2) . . . 110 ?
O4 N1 C5 N1 148(2) 86_556 . . 13_556 ?
O4 N1 C5 N1 148(2) 86_556 . . 110 ?
O4 N1 C5 N1 -148(2) . . . 13_556 ?
O4 N1 C5 C4 -148(2) . . . 13_556 ?
O4 N1 C5 C4 148(2) 86_556 . . 13_556 ?
O4 N1 C5 C4 -32(2) 86_556 . . . ?
O4 N1 C5 C4 32(2) . . . . ?
O4 N1 O4 N1 -81.7(7) 86_556 . . 181 ?
O4 N1 O4 N1 -81.7(7) 86_556 . . 86_556 ?

_shelx_res_file                  
;
TITL a_a.res in Fm-3m
    20210806ghjz8738_er_0m_5_sq.res
    created by SHELXL-2018/3 at 16:22:37 on 03-Sep-2021
REM Old TITL A in Fm-3m
REM SHELXT solution in Fm-3m: R1 0.209, Rweak 0.018, Alpha 0.026
REM <I/s> 0.000 for 0 systematic absences, Orientation as input
REM Formula found by SHELXT: C49 N14 O32 Er6
CELL 0.71073 29.6983 29.6983 29.6983 90 90 90
ZERR 4 0.0012 0.0012 0.0012 0 0 0
LATT 4
SYMM -X,-Y,+Z
SYMM -X,+Y,-Z
SYMM +X,-Y,-Z
SYMM +Z,+X,+Y
SYMM +Z,-X,-Y
SYMM -Z,-X,+Y
SYMM -Z,+X,-Y
SYMM +Y,+Z,+X
SYMM -Y,+Z,-X
SYMM +Y,-Z,-X
SYMM -Y,-Z,+X
SYMM +Y,+X,-Z
SYMM -Y,-X,-Z
SYMM +Y,-X,+Z
SYMM -Y,+X,+Z
SYMM +X,+Z,-Y
SYMM -X,+Z,+Y
SYMM -X,-Z,-Y
SYMM +X,-Z,+Y
SYMM +Z,+Y,-X
SYMM +Z,-Y,+X
SYMM -Z,+Y,+X
SYMM -Z,-Y,-X
SFAC C H N O Zr
UNIT 336 240 48 168 24
EQIV $1 0.5-X,0.5-Y,+Z
EQIV $2 0.5-Y,0.5-X,1-Z
EQIV $3 0.5-Y,0.5-X,+Z
EQIV $4 +Y,+X,1-Z
EQIV $5 +Y,+X,+Z
EQIV $6 -X,1-Y,1-Z
EQIV $7 1.5-Z,0.5-X,-Y
DFIX 1.39 C2 C3 C3 C4
SIMU 0.01 0.02 2
ISOR 0.01 0.02
DANG 2.408 C2 C4
DANG 2.408 C3 C5
DFIX 1.39 C3 C4 C4 C5
DFIX 1.42 0.002 C5 N1
DFIX 1.25 0.005 N1 N1_$1
DFIX 1.3 N1 O4

L.S. 20 0 5
PLAN  8
SIZE 0.1 0.12 0.1
TEMP -80.15
CONF
FREE O4 O4_$2
FREE O4 O4_$6
FREE O4 O4_$7
FREE N1 N1_$2
FREE N1 N1_$3
FREE N1 N1_$4
FREE N1 N1_$5
MORE -1
BOND $H
ABIN
fmap 2 53
acta
SIZE 0.1 0.12 0.1
TEMP -80.15
OMIT 3 3 7
OMIT 0 8 8
OMIT 0 2 4
OMIT 2 2 2
OMIT 0 4 0
OMIT 3 3 3
OMIT 1 3 3
OMIT 0 4 4
OMIT 3 3 5
OMIT 0 0 4
OMIT 2 2 4
REM <olex2.extras>
REM <HklSrc "%.\\20210806GHJZ8738_ER_0m_5_sq.hkl">
REM </olex2.extras>

WGHT    0.058200   51.611595
BASF   0.34174
FVAR       0.11790
ZR1   5    0.500000    0.416777    0.500000    10.12500    0.03487    0.01111 =
         0.03487    0.00000    0.00000    0.00000
O1    4    0.540833    0.459167    0.540833    10.16667    0.06949    0.06949 =
         0.06949   -0.04158    0.04158   -0.04158
O2    4    0.435644    0.379133    0.500000    10.50000    0.08082    0.05638 =
         0.10101    0.00000    0.00000   -0.04701
C1    1    0.394040    0.394040    0.500000    10.25000    0.08190    0.08190 =
         0.10744    0.00000    0.00000   -0.06311
C2    1    0.358053    0.358053    0.500000    10.25000    0.10748    0.10748 =
         0.16851    0.00000    0.00000   -0.08503
PART 1
N1    3    0.248287    0.270982    0.500000    10.25000    0.15749    0.18924 =
         0.25308    0.00000    0.00000   -0.08814
PART 0
C3    1    0.313770    0.369776    0.500000    10.50000    0.10078    0.18660 =
         0.24138    0.00000    0.00000   -0.09599
AFIX  43
H3    2    0.304990    0.400536    0.500000    10.50000   -1.20000
AFIX   0
C4    1    0.281025    0.335043    0.500000    10.50000    0.15229    0.21302 =
         0.27262    0.00000    0.00000   -0.10023
AFIX  43
H4    2    0.250104    0.343239    0.500000    10.50000   -1.20000
AFIX   0
C5    1    0.291560    0.291560    0.500000    10.25000    0.18058    0.18058 =
         0.25844    0.00000    0.00000   -0.09445

O3    4    0.398846    0.398846    0.601154    10.08333    0.16012    0.16012 =
         0.16012    0.04083    0.04083   -0.04083
AFIX   3
H3C   2    0.376106    0.388660    0.623890    10.08333   -1.50000
H3B   2    0.378926    0.417250    0.582750    10.08333   -1.50000
H3A   2    0.418466    0.377300    0.594090    10.08333   -1.50000
AFIX   0

PART 1
O4    4    0.209258    0.290742    0.478285    10.12500    0.19166    0.19166 =
         0.23496    0.00852   -0.00852   -0.07054
HKLF 5




REM  a_a.res in Fm-3m
REM wR2 = 0.1278, GooF = S = 1.083, Restrained GooF = 1.197 for all data
REM R1 = 0.0477 for 4421 Fo > 4sig(Fo) and 0.0611 for all 5122 data
REM 53 parameters refined using 117 restraints

END

WGHT      0.0582     51.6577

REM Highest difference peak  0.366,  deepest hole -0.481,  1-sigma level  0.065
Q1    1   0.5394  0.4606  0.5575  10.50000  0.05    0.37
Q2    1   0.5373  0.4788  0.5373  10.50000  0.05    0.36
Q3    1   0.3788  0.3788  0.6212  10.16667  0.05    0.33
Q4    1   0.5198  0.4802  0.5000  10.25000  0.05    0.31
Q5    1   0.1971  0.3029  0.4626  10.50000  0.05    0.28
Q6    1   0.1845  0.3155  0.4900  10.50000  0.05    0.23
Q7    1   0.2398  0.2602  0.4603  10.50000  0.05    0.23
Q8    1   0.1883  0.3117  0.5000  10.25000  0.05    0.22
;
_shelx_res_checksum              85672
_shelx_hkl_file                  
;
   2   2   2 5297.05 309.152   1
   1   1   3 4069.47 120.138  -2
   1   1   3 4069.47 120.138   1
   1   3   3 557.796 5.20320   1
   1   1   5 1726.37 41.9405  -2
   3   3   3 1726.37 41.9405   1
   3   3   3 2400.48 71.0986  -2
   3   3   3 2400.48 71.0986   1
   0   0   4 2302.93 36.1821   1
   0   2   4 82.8712 1.54556  -2
   0   2   4 82.8712 1.54556   1
   2   2   4 155.791 3.22034  -2
   2   2   4 155.791 3.22034   1
   0   4   4 520.689 10.3518  -2
   0   4   4 520.689 10.3518   1
   0   0   6 3251.27 60.6684  -2
   2   4   4 3251.27 60.6684   1
   4   4   4 144.636 5.78617  -2
   4   4   4 144.636 5.78617   1
   3   3   3 1059.18 17.0627  -2
   1   1   5 1059.18 17.0627   1
   1   3   5 468.951 4.70750  -2
   1   3   5 468.951 4.70750   1
   3   3   5 336.364 3.52086   1
   1   1   7 1587.14 28.6764  -2
   1   5   5 1587.14 28.6764   1
   1   3   7 1956.34 27.5378  -2
   3   5   5 1956.34 27.5378   1
   5   5   5 1801.45 53.9941  -2
   5   5   5 1801.45 53.9941   1
   2   4   4 5991.81 101.877  -2
   0   0   6 5991.81 101.877   1
   0   2   6 172.608 1.80852   1
   2   2   6 90.0639 1.73088  -2
   2   2   6 90.0639 1.73088   1
   0   4   6 945.984 8.79053   1
   2   4   6 1720.05 15.0192  -2
   2   4   6 1720.05 15.0192   1
   0   2   8 555.648 8.37129  -2
   4   4   6 555.648 8.37129   1
   3   5   5 1403.65 84.3847  -2
   4   4   6 1403.65 84.3847   1
   0   6   6 916.252 17.8658  -2
   0   6   6 916.252 17.8658   1
   2   2   8 1081.63 19.0594  -2
   0   6   6 1081.63 19.0594   1
   2   6   6 1080.84 9.94114   1
   5   5   7 3061.04 181.457  -2
   4   6   6 3061.04 181.457   1
   6   6   6 5448.59 160.482  -2
   6   6   6 5448.59 160.482   1
   2   2  10 4152.27 86.7584  -2
   6   6   6 4152.27 86.7584   1
   1   5   5 2335.73 40.0336  -2
   1   1   7 2335.73 40.0336   1
   3   5   5 1405.81 18.0542  -2
   1   3   7 1405.81 18.0542   1
   1   3   7 639.776 8.18158  -2
   1   3   7 639.776 8.18158   1
   3   3   7 343.368 3.37231   1
   1   5   7 319.570 4.90137  -2
   1   5   7 319.570 4.90137   1
   2   4   8 255.980 16.5425  -2
   1   5   7 255.980 16.5425   1
   3   5   7 1383.96 17.4573  -2
   3   5   7 1383.96 17.4573   1
   1   1   9 2751.37 37.5123  -2
   3   5   7 2751.37 37.5123   1
   3   3   9 1136.18 24.7645  -2
   5   5   7 1136.18 24.7645   1
   0   2  10 1623.12 97.6156  -2
   5   5   7 1623.12 97.6156   1
   3   3   9 1264.36 23.1390  -2
   1   7   7 1264.36 23.1390   1
   1   5   9 1736.43 22.8528  -2
   3   7   7 1736.43 22.8528   1
   1   1  11 3545.07 70.1337  -2
   5   7   7 3545.07 70.1337   1
   6   6   8 3996.15 118.319  -2
   5   7   7 3996.15 118.319   1
   7   7   7 7401.45 251.304  -2
   7   7   7 7401.45 251.304   1
   0   0   8 9999.99 221.110   1
   4   4   6 327.516 4.45021  -2
   0   2   8 327.516 4.45021   1
   0   6   6 1200.27 21.0323  -2
   2   2   8 1200.27 21.0323   1
   3   3   7 1136.03 68.3212  -2
   2   2   8 1136.03 68.3212   1
   0   4   8 33.7150 1.26838  -2
   0   4   8 33.7150 1.26838   1
   2   4   8 135.679 2.60715  -2
   2   4   8 135.679 2.60715   1
   4   4   8 51.3182 2.10296  -2
   4   4   8 51.3182 2.10296   1
   0   6   8 195.880 2.33266   1
   2   6   8 1220.16 15.9270  -2
   2   6   8 1220.16 15.9270   1
   0   2  10 1148.15 15.0226  -2
   2   6   8 1148.15 15.0226   1
   3   5   9 941.485 41.3236  -2
   2   6   8 941.485 41.3236   1
   4   6   8 1459.41 18.8798  -2
   4   6   8 1459.41 18.8798   1
   0   4  10 957.873 13.6438  -2
   4   6   8 957.873 13.6438   1
   5   7   7 4084.30 242.354  -2
   6   6   8 4084.30 242.354   1
   0   8   8 68.8141 2.53251  -2
   0   8   8 68.8141 2.53251   1
   3   3  11 237.977 20.8364  -2
   0   8   8 237.977 20.8364   1
   4   4  10 231.705 5.05762  -2
   2   8   8 231.705 5.05762   1
   0   0  12 1819.64 36.8347  -2
   4   8   8 1819.64 36.8347   1
   5   5   9 883.304 56.5245  -2
   4   8   8 883.304 56.5245   1
   2   4  12 3132.96 48.3165  -2
   6   8   8 3132.96 48.3165   1
   7   7   9 4884.56 166.932  -2
   6   8   8 4884.56 166.932   1
   8   8   8 5506.05 187.658  -2
   8   8   8 5506.05 187.658   1
   3   5   7 3911.73 46.2040  -2
   1   1   9 3911.73 46.2040   1
   4   4   8 18.9143 6.68266  -2
   1   3   9 18.9143 6.68266   1
   3   3   9 78.7242 1.72800  -2
   3   3   9 78.7242 1.72800   1
   1   7   7 663.036 15.0510  -2
   3   3   9 663.036 15.0510   1
   5   5   7 733.012 13.3657  -2
   3   3   9 733.012 13.3657   1
   3   7   7 957.144 12.3481  -2
   1   5   9 957.144 12.3481   1
   1   5   9 65.5690 1.81653  -2
   1   5   9 65.5690 1.81653   1
   0   4  10 53.8888 12.5022  -2
   1   5   9 53.8888 12.5022   1
   3   5   9 198.112 1.68297   1
   1   3  11 548.118 8.07908  -2
   5   5   9 548.118 8.07908   1
   4   8   8 824.400 54.0083  -2
   5   5   9 824.400 54.0083   1
   1   3  11 166.024 3.15512  -2
   1   7   9 166.024 3.15512   1
   1   7   9 7.21322 0.86223  -2
   1   7   9 7.21322 0.86223   1
   4   6  10 440.107 17.7547  -2
   3   7   9 440.107 17.7547   1
   0   2  12 566.644 39.6967  -2
   3   7   9 566.644 39.6967   1
   3   5  11 1295.88 19.9622  -2
   5   7   9 1295.88 19.9622   1
   5   7   9 1933.53 25.4613  -2
   5   7   9 1933.53 25.4613   1
   0   2  12 1520.77 91.7139  -2
   5   7   9 1520.77 91.7139   1
   0   4  12 1193.66 76.1741  -2
   5   7   9 1193.66 76.1741   1
   1   3  13 3116.75 49.6954  -2
   7   7   9 3116.75 49.6954   1
   6   8   8 4783.26 282.588  -2
   7   7   9 4783.26 282.588   1
   4   4  12 455.004 23.8831  -2
   1   9   9 455.004 23.8831   1
   1   7  11 66.0670 2.12562  -2
   3   9   9 66.0670 2.12562   1
   1   1  13 642.484 14.0217  -2
   3   9   9 642.484 14.0217   1
   5   5  11 62.6592 2.74342  -2
   3   9   9 62.6592 2.74342   1
   6   6  10 1221.90 53.0548  -2
   5   9   9 1221.90 53.0548   1
   8   8  10 2606.71 70.3147  -2
   7   9   9 2606.71 70.3147   1
   2   2  14 2072.57 125.171  -2
   7   9   9 2072.57 125.171   1
   3   3  15 489.698 11.3963  -2
   9   9   9 489.698 11.3963   1
   9   9   9 694.206 26.1921  -2
   9   9   9 694.206 26.1921   1
   0   0  10 9542.43 149.315   1
   2   6   8 1135.87 13.9321  -2
   0   2  10 1135.87 13.9321   1
   1   7   7 1815.69 110.843  -2
   2   2  10 1815.69 110.843   1
   6   6   6 3092.78 50.9742  -2
   2   2  10 3092.78 50.9742   1
   4   6   8 545.787 7.80991  -2
   0   4  10 545.787 7.80991   1
   1   5   9 36.8148 13.2373  -2
   0   4  10 36.8148 13.2373   1
   2   4  10 0.91284 0.77554  -2
   2   4  10 0.91284 0.77554   1
   2   8   8 119.981 3.89940  -2
   4   4  10 119.981 3.89940   1
   1   5  11 12.2870 12.6527  -2
   0   6  10 12.2870 12.6527   1
   2   6  10 18.8838 0.90600  -2
   2   6  10 18.8838 0.90600   1
   3   7   9 178.497 17.0180  -2
   2   6  10 178.497 17.0180   1
   2   2  12 523.780 7.51033  -2
   4   6  10 523.780 7.51033   1
   4   6  10 330.739 4.92295  -2
   4   6  10 330.739 4.92295   1
   3   7   9 389.696 19.3772  -2
   4   6  10 389.696 19.3772   1
   1   3  13 870.537 40.0945  -2
   6   6  10 870.537 40.0945   1
   5   9   9 1277.82 46.0345  -2
   6   6  10 1277.82 46.0345   1
   2   4  12 390.685 6.47949  -2
   0   8  10 390.685 6.47949   1
   2   8  10 150.057 3.10864  -2
   2   8  10 150.057 3.10864   1
   1   3  13 146.511 8.12561  -2
   2   8  10 146.511 8.12561   1
   0   6  12 132.382 3.09914  -2
   4   8  10 132.382 3.09914   1
   5   7  11 270.285 10.8689  -2
   4   8  10 270.285 10.8689   1
   1   1  13 723.373 44.6950  -2
   4   8  10 723.373 44.6950   1
   0   2  14 1556.95 24.6802  -2
   6   8  10 1556.95 24.6802   1
   6   8  10 1746.56 27.4064  -2
   6   8  10 1746.56 27.4064   1
   3   5  13 1307.64 82.6479  -2
   6   8  10 1307.64 82.6479   1
   7   9   9 2130.21 57.4192  -2
   8   8  10 2130.21 57.4192   1
   4   4  14 1162.90 25.6292  -2
   8   8  10 1162.90 25.6292   1
   0  10  10 5753.39 113.238  -2
   0  10  10 5753.39 113.238   1
   5   5  13 2721.54 94.8191  -2
   2  10  10 2721.54 94.8191   1
   2   2  14 2591.77 63.3483  -2
   2  10  10 2591.77 63.3483   1
   6   6  12 621.974 13.5893  -2
   4  10  10 621.974 13.5893   1
   1   1  15 1189.68 76.3683  -2
   4  10  10 1189.68 76.3683   1
   2   6  14 3.74314 1.33811  -2
   6  10  10 3.74314 1.33811   1
   1   1  15 892.700 55.8064  -2
   6  10  10 892.700 55.8064   1
   7   7  11 272.046 22.2667  -2
   6  10  10 272.046 22.2667   1
   9   9  11 167.877 6.23389  -2
   8  10  10 167.877 6.23389   1
   2   2  16 53.1946 3.58623  -2
   8  10  10 53.1946 3.58623   1
   3   5  15 267.306 23.0622  -2
   8  10  10 267.306 23.0622   1
  10  10  10 1602.99 56.8095  -2
  10  10  10 1602.99 56.8095   1
   3   3  17 1255.41 79.0483  -2
  10  10  10 1255.41 79.0483   1
   5   7   7 3329.27 54.8966  -2
   1   1  11 3329.27 54.8966   1
   5   5   9 512.508 6.67206  -2
   1   3  11 512.508 6.67206   1
   1   7   9 302.114 4.45132  -2
   1   3  11 302.114 4.45132   1
   2   6  10 310.600 20.0944  -2
   1   3  11 310.600 20.0944   1
   3   3  11 369.874 3.73007   1
   1   5  11 24.1369 1.28140  -2
   1   5  11 24.1369 1.28140   1
   0   6  10 14.7377 9.89083  -2
   1   5  11 14.7377 9.89083   1
   4   8   8 451.433 30.6533  -2
   1   5  11 451.433 30.6533   1
   3   5  11 1.65705 1.15287  -2
   3   5  11 1.65705 1.15287   1
   5   7   9 724.657 9.14348  -2
   3   5  11 724.657 9.14348   1
   2   8  10 58.0688 12.9358  -2
   3   5  11 58.0688 12.9358   1
   2   4  12 32.6990 13.1913  -2
   3   5  11 32.6990 13.1913   1
   3   9   9 100.584 3.77751  -2
   5   5  11 100.584 3.77751   1
   2   4  12 108.809 13.6358  -2
   5   5  11 108.809 13.6358   1
   3   9   9 112.402 2.52610  -2
   1   7  11 112.402 2.52610   1
   2   6  12 129.654 12.5873  -2
   1   7  11 129.654 12.5873   1
   4   8  10 101.662 14.6506  -2
   3   7  11 101.662 14.6506   1
   3   7  11 52.7009 1.87843  -2
   3   7  11 52.7009 1.87843   1
   1   3  13 85.8457 2.52307  -2
   3   7  11 85.8457 2.52307   1
   1   5  13 287.490 5.56577  -2
   5   7  11 287.490 5.56577   1
   2   2  14 369.275 16.7589  -2
   5   7  11 369.275 16.7589   1
   4   8  10 342.839 17.6246  -2
   5   7  11 342.839 17.6246   1
   5   5  13 614.388 18.3751  -2
   7   7  11 614.388 18.3751   1
   6  10  10 604.588 18.5335  -2
   7   7  11 604.588 18.5335   1
   0   4  14 618.047 41.0905  -2
   7   7  11 618.047 41.0905   1
   1   9  11 4282.45 63.6359  -2
   1   9  11 4282.45 63.6359   1
   3   5  13 2799.56 48.2703  -2
   1   9  11 2799.56 48.2703   1
   2   4  14 2885.56 100.631  -2
   1   9  11 2885.56 100.631   1
   0   2  14 1565.15 98.6718  -2
   3   9  11 1565.15 98.6718   1
   4   6  12 1353.27 48.2452  -2
   3   9  11 1353.27 48.2452   1
   3   7  13 171.359 3.98419  -2
   5   9  11 171.359 3.98419   1
   1   1  15 978.288 16.5384  -2
   5   9  11 978.288 16.5384   1
   6   8  12 94.4843 6.50177  -2
   5   9  11 94.4843 6.50177   1
   0   6  14 163.154 19.4400  -2
   5   9  11 163.154 19.4400   1
   1   5  15 12.7056 1.58151  -2
   7   9  11 12.7056 1.58151   1
   7   9  11 9.97098 1.48679  -2
   7   9  11 9.97098 1.48679   1
   8  10  10 320.293 10.0705  -2
   9   9  11 320.293 10.0705   1
   0  10  12 3038.35 182.849  -2
   1  11  11 3038.35 182.849   1
   3   3  15 2088.12 51.4817  -2
   1  11  11 2088.12 51.4817   1
   6   6  14 1293.36 35.7521  -2
   3  11  11 1293.36 35.7521   1
   1   9  13 1876.81 28.6486  -2
   3  11  11 1876.81 28.6486   1
   2   2  16 1322.38 83.8335  -2
   3  11  11 1322.38 83.8335   1
   7   7  13 175.904 5.78238  -2
   5  11  11 175.904 5.78238   1
   0   0  16 1524.81 92.1285  -2
   5  11  11 1524.81 92.1285   1
   8   8  12 128.036 8.43069  -2
   7  11  11 128.036 8.43069   1
   1   1  17 462.107 12.3682  -2
   7  11  11 462.107 12.3682   1
   3   5  17 1573.23 24.4028  -2
   9  11  11 1573.23 24.4028   1
   2   2  18 1030.93 65.4861  -2
   9  11  11 1030.93 65.4861   1
  10  10  12 1522.22 33.6262  -2
   9  11  11 1522.22 33.6262   1
  11  11  11 1695.50 60.6189  -2
  11  11  11 1695.50 60.6189   1
   4   4  18 1634.22 101.512  -2
  11  11  11 1634.22 101.512   1
   4   8   8 2401.28 38.4402  -2
   0   0  12 2401.28 38.4402   1
   0   2  12 511.016 4.87481   1
   4   6  10 731.848 9.54078  -2
   2   2  12 731.848 9.54078   1
   5   7   9 693.531 43.9653  -2
   0   4  12 693.531 43.9653   1
   1   7  11 115.310 8.06680  -2
   0   4  12 115.310 8.06680   1
   0   8  10 241.489 4.30960  -2
   2   4  12 241.489 4.30960   1
   6   8   8 1740.62 23.0291  -2
   2   4  12 1740.62 23.0291   1
   5   5  11 99.8830 15.0888  -2
   2   4  12 99.8830 15.0888   1
   4   4  12 61.5432 1.94951  -2
   4   4  12 61.5432 1.94951   1
   0   6  12 35.3606 1.84432  -2
   0   6  12 35.3606 1.84432   1
   4   8  10 85.3920 2.41834  -2
   0   6  12 85.3920 2.41834   1
   5   9   9 426.570 30.1480  -2
   2   6  12 426.570 30.1480   1
   1   5  13 62.7530 15.3670  -2
   2   6  12 62.7530 15.3670   1
   3   9  11 754.638 25.1785  -2
   4   6  12 754.638 25.1785   1
   3   3  13 20.3321 11.0652  -2
   4   6  12 20.3321 11.0652   1
   2   4  14 222.809 4.45295  -2
   6   6  12 222.809 4.45295   1
   6   6  12 334.562 8.79169  -2
   6   6  12 334.562 8.79169   1
   4  10  10 480.437 11.1601  -2
   6   6  12 480.437 11.1601   1
   0   8  12 1742.43 20.0969   1
   3   9  11 2068.05 126.052  -2
   2   8  12 2068.05 126.052   1
   3   7  13 1453.12 45.4082  -2
   2   8  12 1453.12 45.4082   1
   0   4  14 1374.78 23.4994  -2
   2   8  12 1374.78 23.4994   1
   2   8  12 1964.84 31.9591  -2
   2   8  12 1964.84 31.9591   1
   4   8  12 623.127 6.99002  -2
   4   8  12 623.127 6.99002   1
   1   3  15 478.660 25.6515  -2
   4   8  12 478.660 25.6515   1
   1   5  15 -10.460 13.9562  -2
   6   8  12 -10.460 13.9562   1
   5   9  11 43.3802 5.70447  -2
   6   8  12 43.3802 5.70447   1
   1   3  15 20.4389 13.4156  -2
   6   8  12 20.4389 13.4156   1
   0   4  16 65.1703 2.54094  -2
   8   8  12 65.1703 2.54094   1
   7  11  11 106.324 5.88743  -2
   8   8  12 106.324 5.88743   1
   3   5  15 1985.02 70.7675  -2
   0  10  12 1985.02 70.7675   1
   1  11  11 2887.05 174.679  -2
   0  10  12 2887.05 174.679   1
   4   6  14 1593.82 27.0580  -2
   2  10  12 1593.82 27.0580   1
   2  10  12 2266.52 35.3887  -2
   2  10  12 2266.52 35.3887   1
   1   3  15 1564.43 99.6719  -2
   2  10  12 1564.43 99.6719   1
   0   8  14 820.489 14.1582  -2
   4  10  12 820.489 14.1582   1
   0   2  16 774.314 12.9573  -2
   4  10  12 774.314 12.9573   1
   5   7  13 497.181 20.3911  -2
   4  10  12 497.181 20.3911   1
   7   9  13 48.8432 4.40530  -2
   6  10  12 48.8432 4.40530   1
   1   7  15 45.0514 10.4853  -2
   6  10  12 45.0514 10.4853   1
   1   1  17 415.525 33.2978  -2
   6  10  12 415.525 33.2978   1
   8  10  12 388.029 7.12776  -2
   8  10  12 388.029 7.12776   1
   4   6  16 978.614 15.6189  -2
   8  10  12 978.614 15.6189   1
   2   4  18 1105.89 17.7026  -2
  10  10  12 1105.89 17.7026   1
   9  11  11 1430.54 36.8427  -2
  10  10  12 1430.54 36.8427   1
   0  12  12 3065.65 69.5640  -2
   0  12  12 3065.65 69.5640   1
   4   4  16 2711.45 66.4640  -2
   0  12  12 2711.45 66.4640   1
   5   5  15 1639.78 97.8248  -2
   2  12  12 1639.78 97.8248   1
   3   3  17 1957.47 121.426  -2
   2  12  12 1957.47 121.426   1
   7   7  15 1296.43 36.2141  -2
   4  12  12 1296.43 36.2141   1
   1   1  17 1323.02 84.9582  -2
   4  12  12 1323.02 84.9582   1
   2   8  16 290.376 6.15769  -2
   6  12  12 290.376 6.15769   1
   8   8  14 349.593 9.88303  -2
   6  12  12 349.593 9.88303   1
   0   0  18 708.806 16.5630  -2
   6  12  12 708.806 16.5630   1
   1   1  19 922.962 58.7439  -2
   8  12  12 922.962 58.7439   1
   9   9  13 873.420 21.9816  -2
   8  12  12 873.420 21.9816   1
  11  11  13 1402.82 33.7037  -2
  10  12  12 1402.82 33.7037   1
   3   5  19 1291.34 81.7769  -2
  10  12  12 1291.34 81.7769   1
   3   3  19 1100.57 70.0852  -2
  10  12  12 1100.57 70.0852   1
  12  12  12 1400.10 62.8793  -2
  12  12  12 1400.10 62.8793   1
   4   4  20 1079.56 24.7329  -2
  12  12  12 1079.56 24.7329   1
   3   9   9 1221.12 26.7877  -2
   1   1  13 1221.12 26.7877   1
   7   7   9 1747.46 23.1602  -2
   1   3  13 1747.46 23.1602   1
   3   7  11 114.220 2.58762  -2
   1   3  13 114.220 2.58762   1
   6   6  10 544.768 35.0197  -2
   1   3  13 544.768 35.0197   1
   4   6  12 32.7214 9.97280  -2
   3   3  13 32.7214 9.97280   1
   5   7  11 197.176 4.23917  -2
   1   5  13 197.176 4.23917   1
   0   8  12 958.298 44.7062  -2
   1   5  13 958.298 44.7062   1
   6   8  10 679.260 32.1084  -2
   1   5  13 679.260 32.1084   1
   2   6  12 74.4605 17.9529  -2
   1   5  13 74.4605 17.9529   1
   3   5  13 -0.0395 0.86180  -2
   3   5  13 -0.0395 0.86180   1
   1   9  11 1499.83 23.7352  -2
   3   5  13 1499.83 23.7352   1
   7   7  11 351.320 9.16099  -2
   5   5  13 351.320 9.16099   1
   4   4  14 96.3271 11.2583  -2
   5   5  13 96.3271 11.2583   1
   1   7  13 801.112 14.3723  -2
   1   7  13 801.112 14.3723   1
   4  10  10 794.494 51.7928  -2
   1   7  13 794.494 51.7928   1
   4   8  12 767.113 49.1222  -2
   1   7  13 767.113 49.1222   1
   0   6  14 572.718 29.2521  -2
   1   7  13 572.718 29.2521   1
   3   7  13 231.372 5.55397  -2
   3   7  13 231.372 5.55397   1
   5   9  11 194.201 3.97921  -2
   3   7  13 194.201 3.97921   1
   2   8  12 867.751 28.4586  -2
   3   7  13 867.751 28.4586   1
   2   6  14 0.64535 14.8428  -2
   5   7  13 0.64535 14.8428   1
   3   3  15 29.7119 1.74579  -2
   5   7  13 29.7119 1.74579   1
   4  10  12 261.600 8.60647  -2
   5   7  13 261.600 8.60647   1
   5  11  11 106.926 4.68700  -2
   7   7  13 106.926 4.68700   1
   2   4  16 151.519 13.8345  -2
   7   7  13 151.519 13.8345   1
   1   5  15 1220.78 20.4265  -2
   1   9  13 1220.78 20.4265   1
   3  11  11 1885.20 29.6730  -2
   1   9  13 1885.20 29.6730   1
   2   6  14 1285.44 58.2613  -2
   1   9  13 1285.44 58.2613   1
   4   8  14 496.712 14.7553  -2
   3   9  13 496.712 14.7553   1
   0   4  16 479.698 25.8751  -2
   3   9  13 479.698 25.8751   1
   2   8  14 555.017 38.0499  -2
   3   9  13 555.017 38.0499   1
   5   9  13 77.8365 2.75527  -2
   5   9  13 77.8365 2.75527   1
   1   7  15 64.6018 2.75067  -2
   5   9  13 64.6018 2.75067   1
   2   2  16 102.027 18.6819  -2
   5   9  13 102.027 18.6819   1
   1   3  17 3.47315 1.47889  -2
   7   9  13 3.47315 1.47889   1
   6  10  12 13.6351 4.46671  -2
   7   9  13 13.6351 4.46671   1
   5   7  15 331.383 6.75434  -2
   7   9  13 331.383 6.75434   1
   0   6  16 13.1030 10.5800  -2
   7   9  13 13.1030 10.5800   1
   8  12  12 464.025 14.4409  -2
   9   9  13 464.025 14.4409   1
   6   6  16 940.507 61.8903  -2
   9   9  13 940.507 61.8903   1
   0   4  18 198.316 23.0648  -2
   9   9  13 198.316 23.0648   1
   4   6  16 2576.04 78.8325  -2
   1  11  13 2576.04 78.8325   1
   1  11  13 2679.82 43.1699  -2
   1  11  13 2679.82 43.1699   1
   2   4  16 1943.62 85.8784  -2
   1  11  13 1943.62 85.8784   1
   1   3  17 993.483 16.6916  -2
   3  11  13 993.483 16.6916   1
   5   7  15 1376.33 23.7428  -2
   3  11  13 1376.33 23.7428   1
   6   8  14 372.891 15.6699  -2
   5  11  13 372.891 15.6699   1
   3   9  15 291.684 7.07816  -2
   5  11  13 291.684 7.07816   1
   0   8  16 313.591 29.0864  -2
   5  11  13 313.591 29.0864   1
   0   2  18 340.424 14.0037  -2
   5  11  13 340.424 14.0037   1
   1   7  17 333.028 7.07966  -2
   7  11  13 333.028 7.07966   1
   8  10  14 266.540 8.27312  -2
   7  11  13 266.540 8.27312   1
   4   8  16 514.224 37.4786  -2
   7  11  13 514.224 37.4786   1
   9  11  13 917.694 15.9512  -2
   9  11  13 917.694 15.9512   1
   1   3  19 601.193 10.7881  -2
   9  11  13 601.193 10.7881   1
   4   6  18 1347.25 60.3765  -2
   9  11  13 1347.25 60.3765   1
   5   5  19 1361.62 30.5649  -2
  11  11  13 1361.62 30.5649   1
  10  12  12 1333.88 38.3859  -2
  11  11  13 1333.88 38.3859   1
   2   4  20 882.335 41.1159  -2
  11  11  13 882.335 41.1159   1
   5   5  17 2531.47 68.8300  -2
   1  13  13 2531.47 68.8300   1
   4   4  18 2046.11 90.4409  -2
   1  13  13 2046.11 90.4409   1
   1  11  15 1138.34 19.2815  -2
   3  13  13 1138.34 19.2815   1
   6   6  16 1646.70 58.6377  -2
   3  13  13 1646.70 58.6377   1
   2   2  18 802.001 56.1362  -2
   3  13  13 802.001 56.1362   1
   1   1  19 368.776 9.68250  -2
   5  13  13 368.776 9.68250   1
   8   8  16 625.704 19.3048  -2
   5  13  13 625.704 19.3048   1
   9   9  15 398.797 11.0210  -2
   7  13  13 398.797 11.0210   1
   0   0  20 693.610 33.3160  -2
   7  13  13 693.610 33.3160   1
   3   7  19 843.816 15.0288  -2
   9  13  13 843.816 15.0288   1
  10  10  14 641.606 18.9328  -2
   9  13  13 641.606 18.9328   1
   2   2  20 482.014 26.2653  -2
   9  13  13 482.014 26.2653   1
   4   6  20 926.197 36.3342  -2
  11  13  13 926.197 36.3342   1
  12  12  14 882.223 24.5752  -2
  11  13  13 882.223 24.5752   1
   3   3  21 581.087 14.6097  -2
  11  13  13 581.087 14.6097   1
  13  13  13 659.043 33.0507  -2
  13  13  13 659.043 33.0507   1
   0   0  14 3259.73 64.7980   1
   6   8  10 1346.15 19.0240  -2
   0   2  14 1346.15 19.0240   1
   2  10  10 1649.86 38.0481  -2
   2   2  14 1649.86 38.0481   1
   5   7  11 383.528 25.7496  -2
   2   2  14 383.528 25.7496   1
   2   8  12 763.517 13.1852  -2
   0   4  14 763.517 13.1852   1
   7   7  11 349.902 24.5485  -2
   0   4  14 349.902 24.5485   1
   6   6  12 122.520 3.13983  -2
   2   4  14 122.520 3.13983   1
   3   7  13 82.0359 6.90125  -2
   2   4  14 82.0359 6.90125   1
   7   9   9 1047.01 65.1307  -2
   2   4  14 1047.01 65.1307   1
   8   8  10 692.195 14.3059  -2
   4   4  14 692.195 14.3059   1
   5   5  13 139.090 21.3207  -2
   4   4  14 139.090 21.3207   1
   5   9  11 247.487 15.7203  -2
   0   6  14 247.487 15.7203   1
   1   7  13 499.382 38.2937  -2
   0   6  14 499.382 38.2937   1
   6  10  10 5.74034 1.28443  -2
   2   6  14 5.74034 1.28443   1
   1   9  13 647.369 32.6102  -2
   2   6  14 647.369 32.6102   1
   2   6  14 9.82411 1.56527  -2
   2   6  14 9.82411 1.56527   1
   5   7  13 6.49417 11.8513  -2
   2   6  14 6.49417 11.8513   1
   4   6  14 191.182 4.71472  -2
   4   6  14 191.182 4.71472   1
   3   5  15 355.567 20.7584  -2
   4   6  14 355.567 20.7584   1
   2  10  12 892.961 14.2982  -2
   4   6  14 892.961 14.2982   1
   3   5  15 309.359 28.1252  -2
   6   6  14 309.359 28.1252   1
   3  11  11 767.447 36.4506  -2
   6   6  14 767.447 36.4506   1
   7   7  13 98.8687 18.8437  -2
   6   6  14 98.8687 18.8437   1
   4  10  12 831.477 14.4644  -2
   0   8  14 831.477 14.4644   1
   1   7  15 580.101 24.5871  -2
   0   8  14 580.101 24.5871   1
   2   8  14 247.055 5.62942  -2
   2   8  14 247.055 5.62942   1
   5  11  11 234.776 16.3180  -2
   2   8  14 234.776 16.3180   1
   2   4  16 151.794 3.94357  -2
   4   8  14 151.794 3.94357   1
   3   9  13 261.496 8.23390  -2
   4   8  14 261.496 8.23390   1
   3   7  15 91.8864 14.6500  -2
   4   8  14 91.8864 14.6500   1
   5   9  13 34.1692 7.86587  -2
   4   8  14 34.1692 7.86587   1
   6   8  14 167.602 3.95748  -2
   6   8  14 167.602 3.95748   1
   2   6  16 303.426 6.27937  -2
   6   8  14 303.426 6.27937   1
   3   3  17 245.016 17.1320  -2
   6   8  14 245.016 17.1320   1
   5  11  13 266.558 8.41474  -2
   6   8  14 266.558 8.41474   1
   1   5  17 308.577 28.7594  -2
   8   8  14 308.577 28.7594   1
   6  12  12 288.358 8.75105  -2
   8   8  14 288.358 8.75105   1
   7   7  15 550.625 41.0382  -2
   8   8  14 550.625 41.0382   1
   3  11  13 1840.28 110.612  -2
   0  10  14 1840.28 110.612   1
   2   6  16 1478.45 29.1010  -2
   0  10  14 1478.45 29.1010   1
   1   5  17 942.463 36.5665  -2
   2  10  14 942.463 36.5665   1
   2  10  14 1160.80 20.4759  -2
   2  10  14 1160.80 20.4759   1
   3   7  15 873.536 29.3988  -2
   2  10  14 873.536 29.3988   1
   4  10  14 167.801 4.09715  -2
   4  10  14 167.801 4.09715   1
   5   9  15 173.599 7.49846  -2
   4  10  14 173.599 7.49846   1
   1   3  17 154.933 20.6181  -2
   4  10  14 154.933 20.6181   1
   1   9  15 297.646 27.1193  -2
   4  10  14 297.646 27.1193   1
   2   2  18 9.35427 1.67699  -2
   6  10  14 9.35427 1.67699   1
   6  10  14 5.97492 1.81144  -2
   6  10  14 5.97492 1.81144   1
   5   9  15 83.4514 9.37948  -2
   6  10  14 83.4514 9.37948   1
   1   7  17 81.5077 10.3203  -2
   6  10  14 81.5077 10.3203   1
   0   6  18 241.156 5.87454  -2
   8  10  14 241.156 5.87454   1
   7  11  13 149.406 5.83242  -2
   8  10  14 149.406 5.83242   1
   1   3  19 18.5638 7.17057  -2
   8  10  14 18.5638 7.17057   1
   5   7  17 952.896 44.5909  -2
   8  10  14 952.896 44.5909   1
   6   6  18 1245.24 27.9742  -2
  10  10  14 1245.24 27.9742   1
   9  13  13 556.007 16.9535  -2
  10  10  14 556.007 16.9535   1
   3   5  17 2061.99 74.2606  -2
   0  12  14 2061.99 74.2606   1
   5   7  17 1859.31 47.1359  -2
   2  12  14 1859.31 47.1359   1
   2   4  18 1145.28 22.0053  -2
   2  12  14 1145.28 22.0053   1
   2  12  14 1427.54 23.8416  -2
   2  12  14 1427.54 23.8416   1
   0  10  16 474.805 9.34286  -2
   4  12  14 474.805 9.34286   1
   1   3  19 306.599 14.5499  -2
   4  12  14 306.599 14.5499   1
   6   8  16 852.883 15.5652  -2
   4  12  14 852.883 15.5652   1
   7   9  15 273.394 8.78065  -2
   6  12  14 273.394 8.78065   1
   1   1  19 249.082 13.1337  -2
   6  12  14 249.082 13.1337   1
   4   8  18 725.794 12.6645  -2
   8  12  14 725.794 12.6645   1
   9  11  15 303.631 7.99665  -2
   8  12  14 303.631 7.99665   1
   0   2  20 285.133 6.32453  -2
   8  12  14 285.133 6.32453   1
  10  12  14 670.825 12.8366  -2
  10  12  14 670.825 12.8366   1
   2   6  20 584.176 10.7112  -2
  10  12  14 584.176 10.7112   1
   1   3  21 433.663 25.0441  -2
  10  12  14 433.663 25.0441   1
   5   7  19 1113.10 51.6040  -2
  10  12  14 1113.10 51.6040   1
  11  13  13 787.804 22.5039  -2
  12  12  14 787.804 22.5039   1
   3   5  21 512.005 22.7462  -2
  12  12  14 512.005 22.7462   1
   0  14  14 1552.19 34.2543  -2
   0  14  14 1552.19 34.2543   1
   5   5  19 1647.05 74.6148  -2
   0  14  14 1647.05 74.6148   1
   6   6  18 1446.48 37.1177  -2
   2  14  14 1446.48 37.1177   1
   3   3  19 565.485 44.0230  -2
   2  14  14 565.485 44.0230   1
   2   2  20 43.6475 2.96391  -2
   4  14  14 43.6475 2.96391   1
   7   7  17 892.506 25.8744  -2
   4  14  14 892.506 25.8744   1
   2  10  18 28.3129 2.26045  -2
   6  14  14 28.3129 2.26045   1
   9   9  17 158.717 7.37755  -2
   6  14  14 158.717 7.37755   1
   1   1  21 288.656 14.6526  -2
   6  14  14 288.656 14.6526   1
  10  10  16 47.1681 3.69949  -2
   8  14  14 47.1681 3.69949   1
   1   1  21 292.520 29.5508  -2
   8  14  14 292.520 29.5508   1
   3   9  19 101.719 11.3981  -2
   8  14  14 101.719 11.3981   1
   2   2  22 366.462 10.3427  -2
  10  14  14 366.462 10.3427   1
  11  11  15 266.053 11.0771  -2
  10  14  14 266.053 11.0771   1
   3   7  21 172.467 16.9048  -2
  10  14  14 172.467 16.9048   1
   4   6  22 202.899 5.29147  -2
  12  14  14 202.899 5.29147   1
  13  13  15 280.399 11.6399  -2
  12  14  14 280.399 11.6399   1
   5   5  23 155.789 21.5241  -2
  14  14  14 155.789 21.5241   1
  14  14  14 174.874 13.8807  -2
  14  14  14 174.874 13.8807   1
   5   9  11 1621.63 25.4572  -2
   1   1  15 1621.63 25.4572   1
   4   8  12 282.630 19.1871  -2
   1   3  15 282.630 19.1871   1
   6   8  12 65.1014 10.2927  -2
   1   3  15 65.1014 10.2927   1
   5   7  13 46.9368 1.90254  -2
   3   3  15 46.9368 1.90254   1
   9   9   9 308.727 7.75104  -2
   3   3  15 308.727 7.75104   1
   1  11  11 1099.17 23.0112  -2
   3   3  15 1099.17 23.0112   1
   7   9  11 16.7620 1.33694  -2
   1   5  15 16.7620 1.33694   1
   1   9  13 666.993 11.0251  -2
   1   5  15 666.993 11.0251   1
   6   8  12 24.1419 8.36290  -2
   1   5  15 24.1419 8.36290   1
   2   8  14 88.5496 17.3025  -2
   1   5  15 88.5496 17.3025   1
   4   6  14 581.405 44.3668  -2
   3   5  15 581.405 44.3668   1
   6   6  14 559.879 39.3394  -2
   3   5  15 559.879 39.3394   1
   8  10  10 483.035 34.5716  -2
   3   5  15 483.035 34.5716   1
   5   5  15 1154.14 21.0358  -2
   5   5  15 1154.14 21.0358   1
   1   7  15 54.6681 2.43295  -2
   1   7  15 54.6681 2.43295   1
   5   9  13 69.4999 2.65501  -2
   1   7  15 69.4999 2.65501   1
   6  10  12 28.2263 9.16549  -2
   1   7  15 28.2263 9.16549   1
   0   8  14 319.038 20.4203  -2
   1   7  15 319.038 20.4203   1
   6  10  12 183.307 11.6532  -2
   3   7  15 183.307 11.6532   1
   2  10  14 562.807 22.9021  -2
   3   7  15 562.807 22.9021   1
   2   6  16 352.709 29.9349  -2
   3   7  15 352.709 29.9349   1
   7   9  13 632.897 11.4245  -2
   5   7  15 632.897 11.4245   1
   3  11  13 1155.61 19.5184  -2
   5   7  15 1155.61 19.5184   1
   4   6  16 1427.74 89.2449  -2
   5   7  15 1427.74 89.2449   1
   4   4  16 1212.48 79.0118  -2
   5   7  15 1212.48 79.0118   1
   3   5  17 1291.77 21.5319  -2
   7   7  15 1291.77 21.5319   1
   4  12  12 1192.51 44.1910  -2
   7   7  15 1192.51 44.1910   1
   0   6  16 457.291 19.5226  -2
   1   9  15 457.291 19.5226   1
   4  10  14 499.906 34.2016  -2
   1   9  15 499.906 34.2016   1
   2   8  16 443.674 15.0073  -2
   1   9  15 443.674 15.0073   1
   1   5  17 200.962 5.19877  -2
   3   9  15 200.962 5.19877   1
   5  11  13 160.632 4.22909  -2
   3   9  15 160.632 4.22909   1
   3   9  15 12.8040 1.34058  -2
   3   9  15 12.8040 1.34058   1
   4  10  14 165.714 6.89631  -2
   5   9  15 165.714 6.89631   1
   2   4  18 265.811 18.4562  -2
   5   9  15 265.811 18.4562   1
   6  10  14 142.182 19.9538  -2
   5   9  15 142.182 19.9538   1
   2   8  16 125.879 21.0279  -2
   5   9  15 125.879 21.0279   1
   2   4  18 429.240 22.5544  -2
   7   9  15 429.240 22.5544   1
   6  12  14 353.478 9.33956  -2
   7   9  15 353.478 9.33956   1
   2   6  18 621.173 31.4852  -2
   7   9  15 621.173 31.4852   1
   6   8  16 827.477 56.5059  -2
   7   9  15 827.477 56.5059   1
   1   5  19 237.082 5.49392  -2
   9   9  15 237.082 5.49392   1
   7   7  17 893.972 20.6494  -2
   9   9  15 893.972 20.6494   1
   7  13  13 235.866 8.56607  -2
   9   9  15 235.866 8.56607   1
   2  12  14 1216.32 79.1050  -2
   1  11  15 1216.32 79.1050   1
   3   7  17 1145.39 21.0752  -2
   1  11  15 1145.39 21.0752   1
   3  13  13 1108.59 20.5813  -2
   1  11  15 1108.59 20.5813   1
   2   6  18 1061.39 31.5874  -2
   1  11  15 1061.39 31.5874   1
   0   4  18 311.386 20.5347  -2
   3  11  15 311.386 20.5347   1
   4   8  16 411.171 19.9431  -2
   3  11  15 411.171 19.9431   1
   4  12  14 300.717 28.0162  -2
   3  11  15 300.717 28.0162   1
   2  10  16 219.661 16.1186  -2
   3  11  15 219.661 16.1186   1
   1   3  19 16.7911 1.61626  -2
   5  11  15 16.7911 1.61626   1
   4  10  16 22.9739 11.5258  -2
   5  11  15 22.9739 11.5258   1
   6  10  16 181.769 6.79128  -2
   5  11  15 181.769 6.79128   1
   1   9  17 6.04157 2.11179  -2
   5  11  15 6.04157 2.11179   1
   5   9  17 443.577 8.68087  -2
   7  11  15 443.577 8.68087   1
   7  11  15 6.14424 1.88569  -2
   7  11  15 6.14424 1.88569   1
   2   2  20 7.30117 11.2684  -2
   7  11  15 7.30117 11.2684   1
   8  12  14 209.628 6.78329  -2
   9  11  15 209.628 6.78329   1
   0   6  20 171.024 14.3748  -2
   9  11  15 171.024 14.3748   1
   0   4  20 122.962 14.4510  -2
   9  11  15 122.962 14.4510   1
   6   8  18 811.202 38.1710  -2
   9  11  15 811.202 38.1710   1
  10  14  14 299.492 11.5912  -2
  11  11  15 299.492 11.5912   1
   1   5  21 226.470 5.59090  -2
  11  11  15 226.470 5.59090   1
   1  13  15 1101.29 20.5490  -2
   1  13  15 1101.29 20.5490   1
   3   5  19 1105.39 22.6702  -2
   1  13  15 1105.39 22.6702   1
   2  14  14 947.775 63.9264  -2
   1  13  15 947.775 63.9264   1
   4   6  18 1516.44 56.6587  -2
   1  13  15 1516.44 56.6587   1
   2   4  20 216.842 13.0167  -2
   3  13  15 216.842 13.0167   1
   6   8  18 859.840 22.0485  -2
   3  13  15 859.840 22.0485   1
   7   9  17 465.875 9.48425  -2
   5  13  15 465.875 9.48425   1
   3  11  17 4.65836 1.65297  -2
   5  13  15 4.65836 1.65297   1
   0  10  18 25.8539 11.1728  -2
   5  13  15 25.8539 11.1728   1
   0   2  20 49.9914 5.94230  -2
   5  13  15 49.9914 5.94230   1
   1   1  21 283.350 6.15117  -2
   7  13  15 283.350 6.15117   1
   1   9  19 2.21277 1.66390  -2
   7  13  15 2.21277 1.66390   1
   4  10  18 94.2182 8.34365  -2
   7  13  15 94.2182 8.34365   1
   8  10  16 64.5184 4.88720  -2
   7  13  15 64.5184 4.88720   1
   2   8  20 48.2288 19.6747  -2
   9  13  15 48.2288 19.6747   1
  10  12  16 81.9729 5.08372  -2
   9  13  15 81.9729 5.08372   1
   0   2  22 367.051 14.9643  -2
   9  13  15 367.051 14.9643   1
   4   8  20 170.868 18.0702  -2
   9  13  15 170.868 18.0702   1
   5   7  21 259.050 6.16499  -2
  11  13  15 259.050 6.16499   1
   2   6  22 151.327 19.7332  -2
  11  13  15 151.327 19.7332   1
   2   4  22 190.551 12.3336  -2
  11  13  15 190.551 12.3336   1
  11  13  15 246.053 6.63250  -2
  11  13  15 246.053 6.63250   1
   3   5  23 182.073 5.15895  -2
  13  13  15 182.073 5.15895   1
  12  14  14 289.751 11.9351  -2
  13  13  15 289.751 11.9351   1
   4   4  20 424.963 26.3770  -2
   1  15  15 424.963 26.3770   1
   6   6  20 880.629 43.9485  -2
   1  15  15 880.629 43.9485   1
   1  13  17 109.768 3.65114  -2
   3  15  15 109.768 3.65114   1
   7   7  19 671.590 19.0578  -2
   3  15  15 671.590 19.0578   1
   3   3  21 5.97857 1.83596  -2
   3  15  15 5.97857 1.83596   1
   2   2  22 268.379 20.5010  -2
   5  15  15 268.379 20.5010   1
   8   8  18 565.392 21.0907  -2
   5  15  15 565.392 21.0907   1
   2  12  18 69.2932 18.6975  -2
   5  15  15 69.2932 18.6975   1
   0   0  22 704.455 28.4871  -2
   7  15  15 704.455 28.4871   1
  10  10  18 71.4825 7.02661  -2
   7  15  15 71.4825 7.02661   1
   3   9  21 4.55656 1.91707  -2
   9  15  15 4.55656 1.91707   1
   1   1  23 612.034 16.4705  -2
   9  15  15 612.034 16.4705   1
  11  11  17 38.0084 3.70246  -2
   9  15  15 38.0084 3.70246   1
  12  12  16 115.832 7.45495  -2
  11  15  15 115.832 7.45495   1
   4   8  22 38.0383 7.30165  -2
  11  15  15 38.0383 7.30165   1
   2   2  24 388.517 22.6741  -2
  11  15  15 388.517 22.6741   1
  14  14  16 60.2417 8.16154  -2
  13  15  15 60.2417 8.16154   1
   4   6  24 40.2341 7.72268  -2
  13  15  15 40.2341 7.72268   1
   4   4  24 113.822 24.7008  -2
  13  15  15 113.822 24.7008   1
   5   5  25 23.1625 4.42966  -2
  15  15  15 23.1625 4.42966   1
  15  15  15 18.5858 7.61531  -2
  15  15  15 18.5858 7.61531   1
   0   0  16 2662.10 56.5184   1
   4  10  12 749.092 13.0759  -2
   0   2  16 749.092 13.0759   1
   8  10  10 108.114 4.14076  -2
   2   2  16 108.114 4.14076   1
   5   9  13 120.037 10.4911  -2
   2   2  16 120.037 10.4911   1
   8   8  12 61.2822 2.15440  -2
   0   4  16 61.2822 2.15440   1
   3   9  13 279.849 14.9790  -2
   0   4  16 279.849 14.9790   1
   7   7  13 273.643 21.1873  -2
   2   4  16 273.643 21.1873   1
   4   8  14 264.482 4.90879  -2
   2   4  16 264.482 4.90879   1
   1  11  13 1155.96 72.1212  -2
   2   4  16 1155.96 72.1212   1
   9   9  11 434.218 30.8934  -2
   2   4  16 434.218 30.8934   1
   0  12  12 2063.78 44.4385  -2
   4   4  16 2063.78 44.4385   1
   5   7  15 1275.18 46.3505  -2
   4   4  16 1275.18 46.3505   1
   1   9  15 280.765 14.4973  -2
   0   6  16 280.765 14.4973   1
   7   9  13 53.4044 9.77132  -2
   0   6  16 53.4044 9.77132   1
   6   8  14 421.942 8.54092  -2
   2   6  16 421.942 8.54092   1
   0  10  14 1021.47 17.3355  -2
   2   6  16 1021.47 17.3355   1
   7  11  11 421.609 23.4336  -2
   2   6  16 421.609 23.4336   1
   3   7  15 426.991 22.5573  -2
   2   6  16 426.991 22.5573   1
   4   6  16 2056.46 33.5509  -2
   4   6  16 2056.46 33.5509   1
   8  10  12 1525.66 25.2884  -2
   4   6  16 1525.66 25.2884   1
   5   7  15 1667.31 100.968  -2
   4   6  16 1667.31 100.968   1
   1  11  13 2237.33 135.278  -2
   4   6  16 2237.33 135.278   1
   5   5  17 2728.50 117.701  -2
   6   6  16 2728.50 117.701   1
   3  13  13 1944.17 84.1653  -2
   6   6  16 1944.17 84.1653   1
   0   8  16 105.525 3.37591  -2
   0   8  16 105.525 3.37591   1
   5  11  13 243.252 15.1585  -2
   0   8  16 243.252 15.1585   1
   5   9  15 67.9769 14.1391  -2
   2   8  16 67.9769 14.1391   1
   6  12  12 157.407 4.54203  -2
   2   8  16 157.407 4.54203   1
   1   7  17 116.195 19.9199  -2
   2   8  16 116.195 19.9199   1
   1   9  15 223.908 11.3289  -2
   2   8  16 223.908 11.3289   1
   3   5  17 1066.49 71.5250  -2
   4   8  16 1066.49 71.5250   1
   3  11  15 559.894 14.6817  -2
   4   8  16 559.894 14.6817   1
   4   8  16 750.270 15.2247  -2
   4   8  16 750.270 15.2247   1
   7  11  13 617.204 24.1227  -2
   4   8  16 617.204 24.1227   1
   4  12  14 1207.66 21.8859  -2
   6   8  16 1207.66 21.8859   1
   4   4  18 1578.59 26.1114  -2
   6   8  16 1578.59 26.1114   1
   3   7  17 1582.39 101.822  -2
   6   8  16 1582.39 101.822   1
   5  13  13 821.430 27.4808  -2
   8   8  16 821.430 27.4808   1
   8   8  16 1029.85 25.1012  -2
   8   8  16 1029.85 25.1012   1
   3   5  19 986.794 46.8801  -2
   8   8  16 986.794 46.8801   1
   1   7  17 436.928 17.2462  -2
   0  10  16 436.928 17.2462   1
   4  12  14 522.280 10.7146  -2
   0  10  16 522.280 10.7146   1
   0   6  18 303.703 7.38613  -2
   2  10  16 303.703 7.38613   1
   5  13  13 301.191 27.3776  -2
   2  10  16 301.191 27.3776   1
   3   9  17 174.441 9.00605  -2
   2  10  16 174.441 9.00605   1
   3  11  15 186.636 23.6278  -2
   2  10  16 186.636 23.6278   1
   4  10  16 85.8041 3.60220  -2
   4  10  16 85.8041 3.60220   1
   3   9  17 112.581 12.3064  -2
   4  10  16 112.581 12.3064   1
   1   5  19 221.674 16.9401  -2
   4  10  16 221.674 16.9401   1
   5  11  15 375.927 10.3082  -2
   6  10  16 375.927 10.3082   1
   2   8  18 475.908 11.8613  -2
   6  10  16 475.908 11.8613   1
   6  10  16 546.372 10.7639  -2
   6  10  16 546.372 10.7639   1
   3   3  19 489.119 40.8927  -2
   6  10  16 489.119 40.8927   1
   7  13  15 124.923 5.41666  -2
   8  10  16 124.923 5.41666   1
   2   4  20 188.009 4.72108  -2
   8  10  16 188.009 4.72108   1
   7   9  17 540.773 28.7410  -2
   8  10  16 540.773 28.7410   1
   8  14  14 33.7231 4.00047  -2
  10  10  16 33.7231 4.00047   1
   1   5  21 12.2270 16.7850  -2
  10  10  16 12.2270 16.7850   1
   7   7  19 617.820 45.5569  -2
  10  10  16 617.820 45.5569   1
   3   7  19 840.328 29.6456  -2
   0  12  16 840.328 29.6456   1
   3  13  15 561.334 43.2590  -2
   0  12  16 561.334 43.2590   1
   2  12  16 282.598 6.88348  -2
   2  12  16 282.598 6.88348   1
   4   8  18 686.464 13.6680  -2
   2  12  16 686.464 13.6680   1
   1   5  19 385.385 17.0819  -2
   2  12  16 385.385 17.0819   1
   3  13  15 257.730 25.8673  -2
   2  12  16 257.730 25.8673   1
   4  12  16 3.94565 1.60591  -2
   4  12  16 3.94565 1.60591   1
   1  11  17 75.5141 9.62255  -2
   4  12  16 75.5141 9.62255   1
   0   4  20 43.4565 2.84867  -2
   4  12  16 43.4565 2.84867   1
   5   9  17 451.780 18.9099  -2
   4  12  16 451.780 18.9099   1
   7  11  17 197.018 6.22211  -2
   6  12  16 197.018 6.22211   1
   1   3  21 131.797 12.7575  -2
   6  12  16 131.797 12.7575   1
   1   9  19 86.7819 20.8058  -2
   6  12  16 86.7819 20.8058   1
   5  11  17 208.597 17.6140  -2
   6  12  16 208.597 17.6140   1
   8  12  16 1.13141 1.90495  -2
   8  12  16 1.13141 1.90495   1
   0   8  20 3.29381 1.72023  -2
   8  12  16 3.29381 1.72023   1
   5   9  19 212.491 20.0529  -2
   8  12  16 212.491 20.0529   1
   1   3  21 5.10720 17.5370  -2
   8  12  16 5.10720 17.5370   1
   6   8  20 292.749 6.98844  -2
  10  12  16 292.749 6.98844   1
   0   4  22 95.2766 3.69229  -2
  10  12  16 95.2766 3.69229   1
   9  13  15 72.3658 5.50320  -2
  10  12  16 72.3658 5.50320   1
   1   7  21 46.8999 7.80136  -2
  10  12  16 46.8999 7.80136   1
  11  15  15 154.194 9.14433  -2
  12  12  16 154.194 9.14433   1
   1   5  23 218.513 10.5227  -2
  12  12  16 218.513 10.5227   1
   4   6  20 793.390 16.3399  -2
   0  14  16 793.390 16.3399   1
   1  15  15 745.266 52.5180  -2
   0  14  16 745.266 52.5180   1
   2  14  16 189.458 4.65906  -2
   2  14  16 189.458 4.65906   1
   3   5  21 175.628 9.63818  -2
   2  14  16 175.628 9.63818   1
   5   7  19 784.240 28.1122  -2
   2  14  16 784.240 28.1122   1
   1  13  17 188.729 16.3780  -2
   2  14  16 188.729 16.3780   1
   0  12  18 100.851 4.24880  -2
   4  14  16 100.851 4.24880   1
   7   9  19 270.378 8.22054  -2
   4  14  16 270.378 8.22054   1
   1   3  21 44.9067 12.1255  -2
   4  14  16 44.9067 12.1255   1
   8  10  18 187.176 5.09778  -2
   6  14  16 187.176 5.09778   1
   0   2  22 442.939 8.35471  -2
   6  14  16 442.939 8.35471   1
   3  11  19 102.143 10.8132  -2
   6  14  16 102.143 10.8132   1
   4  10  20 35.5747 2.59482  -2
   8  14  16 35.5747 2.59482   1
   1   9  21 44.5787 15.1502  -2
   8  14  16 44.5787 15.1502   1
   1   1  23 576.785 18.8629  -2
   8  14  16 576.785 18.8629   1
   9  11  17 9.23041 4.63787  -2
   8  14  16 9.23041 4.63787   1
  11  13  17 48.3677 5.33813  -2
  10  14  16 48.3677 5.33813   1
   2   8  22 21.3701 2.27398  -2
  10  14  16 21.3701 2.27398   1
   1   3  23 263.707 12.6696  -2
  10  14  16 263.707 12.6696   1
   5   9  21 43.2406 9.49811  -2
  10  14  16 43.2406 9.49811   1
   2   4  24 243.109 6.02485  -2
  12  14  16 243.109 6.02485   1
  12  14  16 86.3651 4.18788  -2
  12  14  16 86.3651 4.18788   1
   5   7  23 69.3303 12.5344  -2
  12  14  16 69.3303 12.5344   1
   3   7  23 44.9866 7.02851  -2
  12  14  16 44.9866 7.02851   1
   6   6  24 51.7429 4.89767  -2
  14  14  16 51.7429 4.89767   1
   3   5  25 33.6566 10.8019  -2
  14  14  16 33.6566 10.8019   1
  13  15  15 48.6659 8.15017  -2
  14  14  16 48.6659 8.15017   1
   5   5  21 284.390 30.5379  -2
   0  16  16 284.390 30.5379   1
   0  16  16 298.368 9.33215  -2
   0  16  16 298.368 9.33215   1
   4   4  22 7.05522 4.91441  -2
   2  16  16 7.05522 4.91441   1
   7   7  21 73.8095 11.7991  -2
   2  16  16 73.8095 11.7991   1
   8   8  20 261.523 11.2339  -2
   4  16  16 261.523 11.2339   1
   3   3  23 303.209 22.7749  -2
   4  16  16 303.209 22.7749   1
   1  13  19 222.944 25.9927  -2
   4  16  16 222.944 25.9927   1
   9   9  19 455.065 14.4817  -2
   6  16  16 455.065 14.4817   1
   2  12  20 438.436 9.30107  -2
   6  16  16 438.436 9.30107   1
   1   1  23 1016.49 71.4933  -2
   6  16  16 1016.49 71.4933   1
  11  11  19 266.726 10.0151  -2
   8  16  16 266.726 10.0151   1
   0   0  24 862.177 21.9181  -2
   8  16  16 862.177 21.9181   1
   3  11  21 189.156 14.0827  -2
   8  16  16 189.156 14.0827   1
  12  12  18 87.6182 5.42757  -2
  10  16  16 87.6182 5.42757   1
   1   1  25 510.814 31.3091  -2
  10  16  16 510.814 31.3091   1
   3   9  23 61.5014 15.6026  -2
  10  16  16 61.5014 15.6026   1
   4   8  24 1.21365 2.10756  -2
  12  16  16 1.21365 2.10756   1
  13  13  17 26.0943 7.58726  -2
  12  16  16 26.0943 7.58726   1
   3   3  25 195.014 16.9496  -2
  12  16  16 195.014 16.9496   1
   4   4  26 16.9332 4.28922  -2
  14  16  16 16.9332 4.28922   1
   5   7  25 61.2229 12.0452  -2
  14  16  16 61.2229 12.0452   1
  15  15  17 20.2961 8.15363  -2
  14  16  16 20.2961 8.15363   1
  16  16  16 183.502 15.4504  -2
  16  16  16 183.502 15.4504   1
   5   5  27 225.896 16.0373  -2
  16  16  16 225.896 16.0373   1
   6  10  12 768.353 48.8459  -2
   1   1  17 768.353 48.8459   1
   7  11  11 743.870 15.8910  -2
   1   1  17 743.870 15.8910   1
   7   9  13 5.36826 1.35639  -2
   1   3  17 5.36826 1.35639   1
   8  10  12 147.769 11.7979  -2
   1   3  17 147.769 11.7979   1
   3  11  13 564.228 10.3311  -2
   1   3  17 564.228 10.3311   1
   4  10  14 53.6967 6.80211  -2
   1   3  17 53.6967 6.80211   1
   6   8  14 305.448 17.6494  -2
   3   3  17 305.448 17.6494   1
   2  10  14 782.125 29.7535  -2
   1   5  17 782.125 29.7535   1
   3   9  15 357.791 7.32925  -2
   1   5  17 357.791 7.32925   1
   8   8  14 404.466 22.3668  -2
   1   5  17 404.466 22.3668   1
   8  10  12 498.331 26.1905  -2
   1   5  17 498.331 26.1905   1
   7   7  15 1467.36 26.4561  -2
   3   5  17 1467.36 26.4561   1
   0  12  14 1882.79 81.2733  -2
   3   5  17 1882.79 81.2733   1
   4   8  16 1439.49 65.4281  -2
   3   5  17 1439.49 65.4281   1
   9  11  11 1659.94 26.4467  -2
   3   5  17 1659.94 26.4467   1
   1  13  13 2761.40 58.7970  -2
   5   5  17 2761.40 58.7970   1
   0  10  16 330.269 12.8928  -2
   1   7  17 330.269 12.8928   1
   7  11  13 285.902 5.94219  -2
   1   7  17 285.902 5.94219   1
   2   8  16 167.456 16.5964  -2
   1   7  17 167.456 16.5964   1
   6  10  14 163.768 12.6602  -2
   1   7  17 163.768 12.6602   1
   1  11  15 1115.36 19.0512  -2
   3   7  17 1115.36 19.0512   1
   3   7  17 1117.62 20.6732  -2
   3   7  17 1117.62 20.6732   1
   8  12  12 1197.96 54.7966  -2
   3   7  17 1197.96 54.7966   1
   6   8  16 1297.87 57.3175  -2
   3   7  17 1297.87 57.3175   1
   5   7  17 2595.36 47.6244  -2
   5   7  17 2595.36 47.6244   1
   2  12  14 2259.12 56.3362  -2
   5   7  17 2259.12 56.3362   1
   8  10  14 1726.47 110.324  -2
   5   7  17 1726.47 110.324   1
   4   6  18 2530.36 110.128  -2
   5   7  17 2530.36 110.128   1
   9   9  15 1513.31 38.9073  -2
   7   7  17 1513.31 38.9073   1
   4  14  14 1658.86 52.5250  -2
   7   7  17 1658.86 52.5250   1
   4   6  18 2325.61 144.911  -2
   7   7  17 2325.61 144.911   1
   1   9  17 25.0156 2.29643  -2
   1   9  17 25.0156 2.29643   1
   5  11  15 11.5752 1.92455  -2
   1   9  17 11.5752 1.92455   1
   0   8  18 35.6941 9.68716  -2
   1   9  17 35.6941 9.68716   1
   6  12  14 80.3981 11.1362  -2
   1   9  17 80.3981 11.1362   1
   4  10  16 166.686 14.0220  -2
   3   9  17 166.686 14.0220   1
   2  10  16 212.220 17.1136  -2
   3   9  17 212.220 17.1136   1
   2   6  18 429.034 25.1845  -2
   3   9  17 429.034 25.1845   1
   4  12  16 811.246 15.9213  -2
   5   9  17 811.246 15.9213   1
   7  11  15 832.774 14.8239  -2
   5   9  17 832.774 14.8239   1
   3   5  19 1145.46 20.2497  -2
   5   9  17 1145.46 20.2497   1
   4   8  18 1312.06 59.9877  -2
   5   9  17 1312.06 59.9877   1
   3   7  19 1194.53 24.5279  -2
   7   9  17 1194.53 24.5279   1
   5  13  15 853.564 16.2768  -2
   7   9  17 853.564 16.2768   1
   4   4  20 1014.19 48.6930  -2
   7   9  17 1014.19 48.6930   1
   2   6  20 353.418 20.0672  -2
   9   9  17 353.418 20.0672   1
   6  14  14 237.349 10.2781  -2
   9   9  17 237.349 10.2781   1
   8   8  18 673.248 48.2904  -2
   9   9  17 673.248 48.2904   1
   4  12  16 161.411 24.0752  -2
   1  11  17 161.411 24.0752   1
   1   7  19 306.993 7.62549  -2
   1  11  17 306.993 7.62549   1
   2   8  18 273.098 12.1986  -2
   1  11  17 273.098 12.1986   1
   4  10  18 100.537 6.82854  -2
   3  11  17 100.537 6.82854   1
   5  13  15 0.06615 1.39092  -2
   3  11  17 0.06615 1.39092   1
   0   6  20 111.429 10.5986  -2
   3  11  17 111.429 10.5986   1
   3  11  17 -0.1558 1.94536  -2
   3  11  17 -0.1558 1.94536   1
   5  11  17 360.809 8.27265  -2
   5  11  17 360.809 8.27265   1
   2   4  20 314.119 17.8786  -2
   5  11  17 314.119 17.8786   1
   6  12  16 272.355 16.2591  -2
   5  11  17 272.355 16.2591   1
   2  10  18 216.015 27.4596  -2
   5  11  17 216.015 27.4596   1
   3   3  21 199.782 4.94952  -2
   7  11  17 199.782 4.94952   1
   6  12  16 247.025 8.79329  -2
   7  11  17 247.025 8.79329   1
   6  10  18 451.499 19.9916  -2
   7  11  17 451.499 19.9916   1
   2   8  20 224.575 17.8259  -2
   7  11  17 224.575 17.8259   1
   1   7  21 0.35572 1.69969  -2
   9  11  17 0.35572 1.69969   1
   8  14  16 4.10724 4.44285  -2
   9  11  17 4.10724 4.44285   1
   7   9  19 239.529 5.82565  -2
   9  11  17 239.529 5.82565   1
   2   4  22 12.3644 12.5254  -2
   9  11  17 12.3644 12.5254   1
   9  15  15 69.2854 5.22895  -2
  11  11  17 69.2854 5.22895   1
   3  15  15 194.539 5.62050  -2
   1  13  17 194.539 5.62050   1
   4   8  20 341.859 14.2131  -2
   1  13  17 341.859 14.2131   1
   2   6  20 392.153 17.9850  -2
   1  13  17 392.153 17.9850   1
   5   9  19 252.972 6.65114  -2
   3  13  17 252.972 6.65114   1
   1   5  21 17.3442 2.41092  -2
   3  13  17 17.3442 2.41092   1
   2  12  18 18.7071 8.40867  -2
   3  13  17 18.7071 8.40867   1
   4  14  16 12.9435 9.18228  -2
   3  13  17 12.9435 9.18228   1
   4  12  18 158.039 11.6035  -2
   5  13  17 158.039 11.6035   1
   0   4  22 197.332 13.4969  -2
   5  13  17 197.332 13.4969   1
   1  11  19 173.796 6.09423  -2
   5  13  17 173.796 6.09423   1
   6  10  18 371.989 11.6206  -2
   5  13  17 371.989 11.6206   1
   8  12  18 88.9567 4.82504  -2
   7  13  17 88.9567 4.82504   1
   2   2  22 248.624 13.1081  -2
   7  13  17 248.624 13.1081   1
   0  10  20 103.154 17.1693  -2
   7  13  17 103.154 17.1693   1
   5  11  19 136.253 4.37635  -2
   7  13  17 136.253 4.37635   1
   9  13  17 -2.6077 2.01588  -2
   9  13  17 -2.6077 2.01588   1
   1   3  23 247.250 6.24842  -2
   9  13  17 247.250 6.24842   1
   0   8  22 47.4313 11.7326  -2
   9  13  17 47.4313 11.7326   1
   6  10  20 54.0520 8.66848  -2
   9  13  17 54.0520 8.66848   1
   1   7  23 101.714 3.74694  -2
  11  13  17 101.714 3.74694   1
  10  14  16 67.5584 5.58997  -2
  11  13  17 67.5584 5.58997   1
   0   4  24 280.437 11.8000  -2
  11  13  17 280.437 11.8000   1
   6   8  22 69.0661 11.9189  -2
  11  13  17 69.0661 11.9189   1
   7   7  23 100.011 6.07700  -2
  13  13  17 100.011 6.07700   1
  12  16  16 60.0633 8.22598  -2
  13  13  17 60.0633 8.22598   1
   2   6  24 107.592 14.1938  -2
  13  13  17 107.592 14.1938   1
   4   6  22 98.0476 9.74394  -2
   1  15  17 98.0476 9.74394   1
   1  15  17 140.627 4.76615  -2
   1  15  17 140.627 4.76615   1
   5   7  21 200.462 6.18354  -2
   1  15  17 200.462 6.18354   1
   6   8  20 267.512 10.6752  -2
   3  15  17 267.512 10.6752   1
   2  14  18 13.2773 12.4464  -2
   3  15  17 13.2773 12.4464   1
   2   4  22 63.7507 12.3815  -2
   3  15  17 63.7507 12.3815   1
   0  14  18 73.7683 13.7577  -2
   3  15  17 73.7683 13.7577   1
   3  13  19 340.131 7.99292  -2
   5  15  17 340.131 7.99292   1
   8  10  20 346.373 10.7139  -2
   5  15  17 346.373 10.7139   1
   1   3  23 588.011 12.2284  -2
   5  15  17 588.011 12.2284   1
   0  12  20 384.037 35.9580  -2
   5  15  17 384.037 35.9580   1
   9  11  19 308.485 7.11884  -2
   7  15  17 308.485 7.11884   1
   1  11  21 330.813 8.94349  -2
   7  15  17 330.813 8.94349   1
   4  12  20 290.473 15.3301  -2
   7  15  17 290.473 15.3301   1
   0   2  24 810.708 25.2019  -2
   7  15  17 810.708 25.2019   1
   0   2  24 577.439 21.0803  -2
   9  15  17 577.439 21.0803   1
   2  10  22 101.042 9.51987  -2
   9  15  17 101.042 9.51987   1
  10  12  18 93.0400 5.42408  -2
   9  15  17 93.0400 5.42408   1
   4  10  22 66.3393 9.69363  -2
   9  15  17 66.3393 9.69363   1
   1   3  25 306.417 7.00578  -2
  11  15  17 306.417 7.00578   1
  12  14  18 4.56978 5.13226  -2
  11  15  17 4.56978 5.13226   1
   5   9  23 0.07761 2.07056  -2
  11  15  17 0.07761 2.07056   1
   2   8  24 22.7729 10.6481  -2
  11  15  17 22.7729 10.6481   1
   3   7  25 1.36738 2.25487  -2
  13  15  17 1.36738 2.25487   1
  13  15  17 -1.3332 2.73598  -2
  13  15  17 -1.3332 2.73598   1
   6   8  24 36.5078 11.8920  -2
  13  15  17 36.5078 11.8920   1
   2   4  26 32.3396 9.01297  -2
  13  15  17 32.3396 9.01297   1
  14  16  16 55.6554 8.68400  -2
  15  15  17 55.6554 8.68400   1
   6   6  26 135.032 13.4772  -2
  15  15  17 135.032 13.4772   1
   4   6  26 61.8292 14.9153  -2
  15  15  17 61.8292 14.9153   1
   0  16  18 43.5150 12.7583  -2
   1  17  17 43.5150 12.7583   1
   5   5  23 30.0202 5.60393  -2
   1  17  17 30.0202 5.60393   1
   6   6  22 14.6035 14.3983  -2
   1  17  17 14.6035 14.3983   1
   8   8  22 278.173 15.8766  -2
   3  17  17 278.173 15.8766   1
   1  15  19 261.637 7.20118  -2
   3  17  17 261.637 7.20118   1
   4   4  24 375.649 26.4064  -2
   3  17  17 375.649 26.4064   1
   9   9  21 823.746 22.6946  -2
   5  17  17 823.746 22.6946   1
   2   2  24 1176.49 52.1342  -2
   5  17  17 1176.49 52.1342   1
   2  14  20 839.737 59.9259  -2
   5  17  17 839.737 59.9259   1
   1   1  25 1312.37 31.8331  -2
   7  17  17 1312.37 31.8331   1
   2  12  22 933.898 46.7585  -2
   7  17  17 933.898 46.7585   1
  10  10  20 840.302 24.2394  -2
   7  17  17 840.302 24.2394   1
   3  11  23 489.121 10.9424  -2
   9  17  17 489.121 10.9424   1
  12  12  20 401.218 14.4787  -2
   9  17  17 401.218 14.4787   1
   0   0  26 873.935 35.1861  -2
   9  17  17 873.935 35.1861   1
  13  13  19 120.472 6.97372  -2
  11  17  17 120.472 6.97372   1
   2   2  26 359.212 21.9855  -2
  11  17  17 359.212 21.9855   1
   4  10  24 209.649 12.1289  -2
  11  17  17 209.649 12.1289   1
   3   3  27 86.3419 5.93249  -2
  13  17  17 86.3419 5.93249   1
   4   8  26 68.0851 12.4132  -2
  13  17  17 68.0851 12.4132   1
  14  14  18 99.4096 9.33053  -2
  13  17  17 99.4096 9.33053   1
   5   7  27 286.154 7.47391  -2
  15  17  17 286.154 7.47391   1
  16  16  18 310.031 13.5252  -2
  15  17  17 310.031 13.5252   1
   4   4  28 287.663 15.1338  -2
  15  17  17 287.663 15.1338   1
  17  17  17 609.016 32.7300  -2
  17  17  17 609.016 32.7300   1
   6   6  28 564.646 26.3703  -2
  17  17  17 564.646 26.3703   1
   6  12  12 929.063 21.0492  -2
   0   0  18 929.063 21.0492   1
   7  11  13 232.453 12.9274  -2
   0   2  18 232.453 12.9274   1
   6  10  14 5.25299 1.37510  -2
   2   2  18 5.25299 1.37510   1
   3  13  13 415.769 27.2610  -2
   2   2  18 415.769 27.2610   1
   9  11  11 520.192 35.3304  -2
   2   2  18 520.192 35.3304   1
   3  11  15 306.199 11.7982  -2
   0   4  18 306.199 11.7982   1
   9   9  13 248.413 17.0881  -2
   0   4  18 248.413 17.0881   1
  10  10  12 866.984 14.5196  -2
   2   4  18 866.984 14.5196   1
   2  12  14 835.762 14.7020  -2
   2   4  18 835.762 14.7020   1
   5   9  15 445.478 23.2544  -2
   2   4  18 445.478 23.2544   1
   7   9  15 513.398 26.6899  -2
   2   4  18 513.398 26.6899   1
   6   8  16 1500.22 26.0082  -2
   4   4  18 1500.22 26.0082   1
   1  13  13 1724.04 105.825  -2
   4   4  18 1724.04 105.825   1
   8  10  14 384.490 8.47865  -2
   0   6  18 384.490 8.47865   1
   2  10  16 472.317 9.30541  -2
   0   6  18 472.317 9.30541   1
   1  11  15 1040.42 38.6528  -2
   2   6  18 1040.42 38.6528   1
   3   9  17 745.292 38.0122  -2
   2   6  18 745.292 38.0122   1
   9  11  13 921.692 44.2125  -2
   2   6  18 921.692 44.2125   1
   7   9  15 811.240 31.5286  -2
   2   6  18 811.240 31.5286   1
   5   7  17 2392.80 104.469  -2
   4   6  18 2392.80 104.469   1
   9  11  13 1796.87 114.824  -2
   4   6  18 1796.87 114.824   1
   1  13  15 1820.66 39.8763  -2
   4   6  18 1820.66 39.8763   1
   7   7  17 2413.24 84.8715  -2
   4   6  18 2413.24 84.8715   1
   2  14  14 2061.45 44.4393  -2
   6   6  18 2061.45 44.4393   1
  10  10  14 2020.82 46.9299  -2
   6   6  18 2020.82 46.9299   1
   6   6  18 2824.63 51.6019  -2
   6   6  18 2824.63 51.6019   1
   1   9  17 61.7153 12.7171  -2
   0   8  18 61.7153 12.7171   1
   7  11  15 31.4846 11.3626  -2
   0   8  18 31.4846 11.3626   1
   1  11  17 278.812 10.8374  -2
   2   8  18 278.812 10.8374   1
   6  10  16 404.286 9.08362  -2
   2   8  18 404.286 9.08362   1
   2   8  18 312.869 7.33878  -2
   2   8  18 312.869 7.33878   1
   7  13  13 456.460 38.1191  -2
   2   8  18 456.460 38.1191   1
   2  12  16 984.606 16.9936  -2
   4   8  18 984.606 16.9936   1
   8  12  14 992.068 18.0006  -2
   4   8  18 992.068 18.0006   1
   5   9  17 1354.08 60.9744  -2
   4   8  18 1354.08 60.9744   1
   3   7  19 1266.64 59.2210  -2
   4   8  18 1266.64 59.2210   1
   3  13  15 1486.37 28.5389  -2
   6   8  18 1486.37 28.5389   1
   5   7  19 2177.75 95.7000  -2
   6   8  18 2177.75 95.7000   1
   9  11  15 1550.98 100.964  -2
   6   8  18 1550.98 100.964   1
   5   5  19 1874.93 119.478  -2
   6   8  18 1874.93 119.478   1
   4   6  20 1221.01 24.9699  -2
   8   8  18 1221.01 24.9699   1
   5  15  15 1011.19 27.6009  -2
   8   8  18 1011.19 27.6009   1
   1   9  19 60.0616 7.48280  -2
   0  10  18 60.0616 7.48280   1
   2  10  18 1.49003 2.07900  -2
   2  10  18 1.49003 2.07900   1
   6  14  14 8.81540 1.97003  -2
   2  10  18 8.81540 1.97003   1
   1   7  19 147.153 12.6651  -2
   2  10  18 147.153 12.6651   1
   5  11  17 140.324 14.0575  -2
   2  10  18 140.324 14.0575   1
   4  10  18 314.818 8.46930  -2
   4  10  18 314.818 8.46930   1
   2   6  20 347.327 7.73217  -2
   4  10  18 347.327 7.73217   1
   3  11  17 216.812 11.8330  -2
   4  10  18 216.812 11.8330   1
   7  13  15 199.058 18.4866  -2
   4  10  18 199.058 18.4866   1
   5  13  17 544.599 12.4760  -2
   6  10  18 544.599 12.4760   1
   3   9  19 572.488 45.5062  -2
   6  10  18 572.488 45.5062   1
   3   5  21 537.623 25.0252  -2
   6  10  18 537.623 25.0252   1
   7  11  17 590.482 29.1874  -2
   6  10  18 590.482 29.1874   1
   6  14  16 226.547 6.00459  -2
   8  10  18 226.547 6.00459   1
   8  10  18 244.509 6.24256  -2
   8  10  18 244.509 6.24256   1
   3   7  21 210.668 18.2081  -2
   8  10  18 210.668 18.2081   1
   3   5  21 251.983 19.5752  -2
   8  10  18 251.983 19.5752   1
   2   6  22 22.9174 2.05097  -2
  10  10  18 22.9174 2.05097   1
   7  15  15 45.1551 6.79740  -2
  10  10  18 45.1551 6.79740   1
   9   9  19 32.5030 17.6032  -2
  10  10  18 32.5030 17.6032   1
   4  14  16 164.189 5.14454  -2
   0  12  18 164.189 5.14454   1
   2   8  20 165.057 5.83636  -2
   0  12  18 165.057 5.83636   1
   3   9  19 103.680 9.21733  -2
   2  12  18 103.680 9.21733   1
   1   7  21 48.7286 9.96705  -2
   2  12  18 48.7286 9.96705   1
   5  15  15 78.8082 11.5733  -2
   2  12  18 78.8082 11.5733   1
   5  11  19 95.6827 6.40618  -2
   4  12  18 95.6827 6.40618   1
   1   5  21 69.9212 8.60230  -2
   4  12  18 69.9212 8.60230   1
   5  13  17 142.805 11.2891  -2
   4  12  18 142.805 11.2891   1
   3  11  19 61.6977 11.9171  -2
   4  12  18 61.6977 11.9171   1
   6  12  18 240.944 4.43861  -2
   6  12  18 240.944 4.43861   1
   2  10  20 153.246 6.22173  -2
   6  12  18 153.246 6.22173   1
   2   4  22 186.807 5.35452  -2
   6  12  18 186.807 5.35452   1
   7  11  19 46.4311 7.11364  -2
   8  12  18 46.4311 7.11364   1
   3   3  23 130.642 8.20091  -2
   8  12  18 130.642 8.20091   1
   7  13  17 60.5895 4.93285  -2
   8  12  18 60.5895 4.93285   1
   1   5  23 168.338 10.3233  -2
  10  12  18 168.338 10.3233   1
   9  15  17 88.3483 5.70560  -2
  10  12  18 88.3483 5.70560   1
   1   7  23 100.447 10.8625  -2
  10  12  18 100.447 10.8625   1
   7   9  21 77.4506 8.95481  -2
  10  12  18 77.4506 8.95481   1
   8   8  22 116.150 6.89602  -2
  12  12  18 116.150 6.89602   1
  10  16  16 104.821 6.41777  -2
  12  12  18 104.821 6.41777   1
   0   6  24 151.499 4.75886  -2
  12  12  18 151.499 4.75886   1
   3  15  17 62.9605 19.8490  -2
   0  14  18 62.9605 19.8490   1
   3   7  21 102.104 11.2725  -2
   0  14  18 102.104 11.2725   1
   2  14  18 2.67515 2.09402  -2
   2  14  18 2.67515 2.09402   1
   5   9  21 30.3622 8.44388  -2
   2  14  18 30.3622 8.44388   1
   3  15  17 16.6276 12.6317  -2
   2  14  18 16.6276 12.6317   1
   2   6  22 10.0635 2.61805  -2
   2  14  18 10.0635 2.61805   1
   4  14  18 218.860 5.77923  -2
   4  14  18 218.860 5.77923   1
   1   5  23 252.733 14.9521  -2
   4  14  18 252.733 14.9521   1
   6  10  20 204.078 5.87871  -2
   4  14  18 204.078 5.87871   1
   1  13  19 143.723 15.7248  -2
   4  14  18 143.723 15.7248   1
   7  11  19 289.247 8.61339  -2
   6  14  18 289.247 8.61339   1
   1   3  23 545.182 25.9933  -2
   6  14  18 545.182 25.9933   1
   5  13  19 325.725 15.0177  -2
   6  14  18 325.725 15.0177   1
   1  11  21 303.036 32.7084  -2
   6  14  18 303.036 32.7084   1
   2   2  24 508.601 9.98549  -2
   8  14  18 508.601 9.98549   1
   9  13  19 96.5296 5.15847  -2
   8  14  18 96.5296 5.15847   1
   0  10  22 169.208 6.62315  -2
   8  14  18 169.208 6.62315   1
   5  11  21 85.1693 14.9878  -2
   8  14  18 85.1693 14.9878   1
  10  14  18 3.40980 2.44624  -2
  10  14  18 3.40980 2.44624   1
   6  10  22 3.27846 2.09439  -2
  10  14  18 3.27846 2.09439   1
   1   3  25 329.486 15.9634  -2
  10  14  18 329.486 15.9634   1
   1   9  23 48.0173 15.9687  -2
  10  14  18 48.0173 15.9687   1
  11  15  17 5.13816 5.27256  -2
  12  14  18 5.13816 5.27256   1
   7   9  23 6.63395 17.9009  -2
  12  14  18 6.63395 17.9009   1
   1   5  25 73.3934 9.22533  -2
  12  14  18 73.3934 9.22533   1
   1   7  25 24.4742 6.28452  -2
  12  14  18 24.4742 6.28452   1
   2   6  26 2.49559 2.30701  -2
  14  14  18 2.49559 2.30701   1
  13  17  17 53.7799 8.17681  -2
  14  14  18 53.7799 8.17681   1
   7   7  25 58.0204 20.3462  -2
  14  14  18 58.0204 20.3462   1
   1  17  17 19.1841 18.5458  -2
   0  16  18 19.1841 18.5458   1
   5   7  23 -4.6421 8.69101  -2
   0  16  18 -4.6421 8.69101   1
   3   5  23 121.962 13.8392  -2
   2  16  18 121.962 13.8392   1
   6   8  22 92.0809 4.38231  -2
   2  16  18 92.0809 4.38231   1
   2  16  18 122.316 3.96402  -2
   2  16  18 122.316 3.96402   1
   1  15  19 64.7021 13.7431  -2
   2  16  18 64.7021 13.7431   1
   2   4  24 701.911 15.4750  -2
   4  16  18 701.911 15.4750   1
   7   9  21 516.208 15.4018  -2
   4  16  18 516.208 15.4018   1
   0  14  20 499.737 11.3033  -2
   4  16  18 499.737 11.3033   1
   3  15  19 557.862 44.6791  -2
   4  16  18 557.862 44.6791   1
   9  11  21 856.009 16.6146  -2
   6  16  18 856.009 16.6146   1
   3  13  21 862.647 63.3452  -2
   6  16  18 862.647 63.3452   1
   1   3  25 1070.16 32.5910  -2
   6  16  18 1070.16 32.5910   1
   1  13  21 846.214 40.2182  -2
   6  16  18 846.214 40.2182   1
   4  12  22 482.053 9.95068  -2
   8  16  18 482.053 9.95068   1
  10  12  20 519.843 10.6894  -2
   8  16  18 519.843 10.6894   1
   1   1  25 997.893 27.6004  -2
   8  16  18 997.893 27.6004   1
   1  11  23 686.450 36.1095  -2
   8  16  18 686.450 36.1095   1
   2  10  24 304.440 7.26532  -2
  10  16  18 304.440 7.26532   1
  11  13  19 161.836 6.95207  -2
  10  16  18 161.836 6.95207   1
   5  11  23 241.832 12.9260  -2
  10  16  18 241.832 12.9260   1
   0   2  26 475.234 9.76383  -2
  10  16  18 475.234 9.76383   1
   3   9  25 122.770 10.1334  -2
  12  16  18 122.770 10.1334   1
  13  15  19 72.9084 6.08177  -2
  12  16  18 72.9084 6.08177   1
   1   3  27 79.5510 10.4845  -2
  12  16  18 79.5510 10.4845   1
   5   9  25 59.4534 13.1335  -2
  12  16  18 59.4534 13.1335   1
  14  16  18 152.823 5.84065  -2
  14  16  18 152.823 5.84065   1
   3   7  27 121.302 8.56540  -2
  14  16  18 121.302 8.56540   1
   6   8  26 134.947 5.20751  -2
  14  16  18 134.947 5.20751   1
   3   5  27 161.630 12.1196  -2
  14  16  18 161.630 12.1196   1
  15  17  17 349.904 14.3736  -2
  16  16  18 349.904 14.3736   1
   4   6  28 378.620 8.94197  -2
  16  16  18 378.620 8.94197   1
   7   7  27 302.493 15.6971  -2
  16  16  18 302.493 15.6971   1
   0  18  18 98.0340 4.95366  -2
   0  18  18 98.0340 4.95366   1
   6   6  24 100.030 7.91693  -2
   0  18  18 100.030 7.91693   1
   7   7  23 228.448 17.9147  -2
   2  18  18 228.448 17.9147   1
   5   5  25 208.177 16.9982  -2
   2  18  18 208.177 16.9982   1
   1  17  19 248.297 20.8600  -2
   2  18  18 248.297 20.8600   1
   1  15  21 704.909 38.5688  -2
   4  18  18 704.909 38.5688   1
   9   9  23 693.696 27.3345  -2
   4  18  18 693.696 27.3345   1
   3   3  25 949.903 49.0985  -2
   4  18  18 949.903 49.0985   1
   2  14  22 1041.96 21.4121  -2
   6  18  18 1041.96 21.4121   1
  10  10  22 1107.05 29.7398  -2
   6  18  18 1107.05 29.7398   1
   2   2  26 1214.96 29.2919  -2
   6  18  18 1214.96 29.2919   1
  11  11  21 774.279 25.3246  -2
   8  18  18 774.279 25.3246   1
   1   1  27 909.263 35.8373  -2
   8  18  18 909.263 35.8373   1
   3  11  25 405.843 16.4021  -2
  10  18  18 405.843 16.4021   1
  13  13  21 360.270 14.2026  -2
  10  18  18 360.270 14.2026   1
   1   1  27 458.439 22.3335  -2
  10  18  18 458.439 22.3335   1
   4  10  26 160.774 5.45885  -2
  12  18  18 160.774 5.45885   1
  14  14  20 126.920 7.42462  -2
  12  18  18 126.920 7.42462   1
   2   2  28 130.462 6.24090  -2
  12  18  18 130.462 6.24090   1
   5   9  27 223.176 12.0460  -2
  14  18  18 223.176 12.0460   1
  15  15  19 238.779 12.3143  -2
  14  18  18 238.779 12.3143   1
   3   3  29 239.563 15.8782  -2
  14  18  18 239.563 15.8782   1
  17  17  19 604.846 20.4115  -2
  16  18  18 604.846 20.4115   1
   5   5  29 573.883 22.6893  -2
  16  18  18 573.883 22.6893   1
   5   7  29 570.006 17.0922  -2
  16  18  18 570.006 17.0922   1
   6   6  30 721.090 20.3882  -2
  18  18  18 721.090 20.3882   1
  18  18  18 722.900 38.3650  -2
  18  18  18 722.900 38.3650   1
   5  13  13 351.352 10.1406  -2
   1   1  19 351.352 10.1406   1
   8  12  12 579.092 38.5094  -2
   1   1  19 579.092 38.5094   1
   6  12  14 286.497 12.7340  -2
   1   1  19 286.497 12.7340   1
   5  11  15 34.0793 2.21176  -2
   1   3  19 34.0793 2.21176   1
   4  12  14 191.424 14.8254  -2
   1   3  19 191.424 14.8254   1
   9  11  13 371.427 6.59998  -2
   1   3  19 371.427 6.59998   1
   8  10  14 50.7626 10.0770  -2
   1   3  19 50.7626 10.0770   1
   2  14  14 465.908 17.7879  -2
   3   3  19 465.908 17.7879   1
   6  10  16 391.158 21.3114  -2
   3   3  19 391.158 21.3114   1
   9   9  15 370.713 7.59943  -2
   1   5  19 370.713 7.59943   1
  10  10  14 549.991 23.3481  -2
   1   5  19 549.991 23.3481   1
   2  12  16 460.316 15.7234  -2
   1   5  19 460.316 15.7234   1
   4  10  16 415.067 21.1188  -2
   1   5  19 415.067 21.1188   1
   1  13  15 1051.05 16.7412  -2
   3   5  19 1051.05 16.7412   1
   8   8  16 1020.82 48.8798  -2
   3   5  19 1020.82 48.8798   1
   5   9  17 1056.26 18.7912  -2
   3   5  19 1056.26 18.7912   1
  11  11  13 1483.42 41.2242  -2
   5   5  19 1483.42 41.2242   1
   6   8  18 1728.64 77.7880  -2
   5   5  19 1728.64 77.7880   1
   0  14  14 1579.73 69.6549  -2
   5   5  19 1579.73 69.6549   1
   8  10  16 347.888 22.1680  -2
   1   7  19 347.888 22.1680   1
   1  11  17 350.815 7.57950  -2
   1   7  19 350.815 7.57950   1
   2  10  18 255.487 11.6850  -2
   1   7  19 255.487 11.6850   1
   8  12  14 414.532 37.2216  -2
   1   7  19 414.532 37.2216   1
   7   9  17 1107.99 20.7961  -2
   3   7  19 1107.99 20.7961   1
   9  13  13 905.478 15.9515  -2
   3   7  19 905.478 15.9515   1
   0  12  16 915.156 26.8951  -2
   3   7  19 915.156 26.8951   1
   4   8  18 1173.26 55.7136  -2
   3   7  19 1173.26 55.7136   1
   2  14  16 1288.35 26.5416  -2
   5   7  19 1288.35 26.5416   1
   5   7  19 1827.37 32.7268  -2
   5   7  19 1827.37 32.7268   1
  10  12  14 1433.67 94.4858  -2
   5   7  19 1433.67 94.4858   1
   6   8  18 1982.31 87.8396  -2
   5   7  19 1982.31 87.8396   1
   3  15  15 1252.19 29.5543  -2
   7   7  19 1252.19 29.5543   1
   6   6  20 1784.82 65.6886  -2
   7   7  19 1784.82 65.6886   1
  10  10  16 1295.72 87.1368  -2
   7   7  19 1295.72 87.1368   1
   7  13  15 2.94104 1.80603  -2
   1   9  19 2.94104 1.80603   1
   0  10  18 38.5723 7.39662  -2
   1   9  19 38.5723 7.39662   1
   1   9  19 -0.1992 2.01991  -2
   1   9  19 -0.1992 2.01991   1
   6  12  16 34.1443 14.5665  -2
   1   9  19 34.1443 14.5665   1
   2  12  18 137.112 7.32329  -2
   3   9  19 137.112 7.32329   1
   6  10  18 388.819 18.0683  -2
   3   9  19 388.819 18.0683   1
   2   8  20 146.425 13.6907  -2
   3   9  19 146.425 13.6907   1
   8  14  14 127.821 12.5276  -2
   3   9  19 127.821 12.5276   1
   5   9  19 692.537 14.5861  -2
   5   9  19 692.537 14.5861   1
   4   6  20 727.755 38.1632  -2
   5   9  19 727.755 38.1632   1
   3  13  17 468.876 10.6511  -2
   5   9  19 468.876 10.6511   1
   8  12  16 447.983 25.8157  -2
   5   9  19 447.983 25.8157   1
   9  11  17 450.066 9.47766  -2
   7   9  19 450.066 9.47766   1
   5   5  21 602.795 12.1263  -2
   7   9  19 602.795 12.1263   1
   4  14  16 489.285 13.3716  -2
   7   9  19 489.285 13.3716   1
   4   8  20 447.909 40.6685  -2
   7   9  19 447.909 40.6685   1
   4   6  22 24.5902 9.50915  -2
   9   9  19 24.5902 9.50915   1
   6  16  16 264.481 11.0175  -2
   9   9  19 264.481 11.0175   1
   0   8  20 80.1632 8.09655  -2
   1  11  19 80.1632 8.09655   1
   2  10  20 82.2790 8.86701  -2
   1  11  19 82.2790 8.86701   1
   5  13  17 146.503 4.89451  -2
   1  11  19 146.503 4.89451   1
   6  14  16 130.673 11.5639  -2
   1  11  19 130.673 11.5639   1
   1   7  21 -0.9807 2.04417  -2
   3  11  19 -0.9807 2.04417   1
   3  11  19 4.38334 2.11633  -2
   3  11  19 4.38334 2.11633   1
   6  14  16 53.3119 11.8913  -2
   3  11  19 53.3119 11.8913   1
   7  13  17 130.491 4.35865  -2
   5  11  19 130.491 4.35865   1
   4  10  20 108.699 14.6223  -2
   5  11  19 108.699 14.6223   1
   2   6  22 104.541 12.8984  -2
   5  11  19 104.541 12.8984   1
   4  12  18 125.576 8.00295  -2
   5  11  19 125.576 8.00295   1
   4   4  22 89.6175 12.4395  -2
   7  11  19 89.6175 12.4395   1
   8  12  18 82.5655 7.88973  -2
   7  11  19 82.5655 7.88973   1
   3   9  21 70.8162 4.31157  -2
   7  11  19 70.8162 4.31157   1
   6  14  18 209.406 6.63979  -2
   7  11  19 209.406 6.63979   1
   3   5  23 71.6668 3.33014  -2
   9  11  19 71.6668 3.33014   1
   7  15  17 192.915 5.82975  -2
   9  11  19 192.915 5.82975   1
   8  10  20 26.1072 7.17707  -2
   9  11  19 26.1072 7.17707   1
   2   8  22 46.9727 13.9021  -2
   9  11  19 46.9727 13.9021   1
   8  16  16 275.660 11.5150  -2
  11  11  19 275.660 11.5150   1
   9   9  21 176.997 8.37339  -2
  11  11  19 176.997 8.37339   1
   2   6  24 170.806 11.4604  -2
  11  11  19 170.806 11.4604   1
   3   9  21 25.5953 2.91641  -2
   1  13  19 25.5953 2.91641   1
   4  14  18 103.023 13.1809  -2
   1  13  19 103.023 13.1809   1
   2   8  22 50.6864 9.21674  -2
   1  13  19 50.6864 9.21674   1
   4  16  16 130.530 14.8660  -2
   1  13  19 130.530 14.8660   1
   5  15  17 196.499 5.74667  -2
   3  13  19 196.499 5.74667   1
   3  13  19 22.4489 2.95980  -2
   3  13  19 22.4489 2.95980   1
   0   6  22 27.4856 7.97896  -2
   3  13  19 27.4856 7.97896   1
   4  10  20 24.6872 6.09473  -2
   3  13  19 24.6872 6.09473   1
   6  12  20 133.837 6.47157  -2
   5  13  19 133.837 6.47157   1
   1   5  23 237.619 6.43581  -2
   5  13  19 237.619 6.43581   1
   6  14  18 259.864 14.7701  -2
   5  13  19 259.864 14.7701   1
   2  12  20 182.140 26.9459  -2
   5  13  19 182.140 26.9459   1
   7  13  19 100.315 4.37944  -2
   7  13  19 100.315 4.37944   1
   6  12  20 81.1635 12.2737  -2
   7  13  19 81.1635 12.2737   1
   2   4  24 254.733 17.4880  -2
   7  13  19 254.733 17.4880   1
   2  10  22 100.727 25.3719  -2
   7  13  19 100.727 25.3719   1
   1   9  23 62.9523 4.45781  -2
   9  13  19 62.9523 4.45781   1
   7  11  21 15.7444 2.44003  -2
   9  13  19 15.7444 2.44003   1
   8  14  18 56.6093 5.32221  -2
   9  13  19 56.6093 5.32221   1
   2   4  24 187.759 11.4738  -2
   9  13  19 187.759 11.4738   1
  10  16  18 135.644 6.63221  -2
  11  13  19 135.644 6.63221   1
   1   5  25 121.335 4.44152  -2
  11  13  19 121.335 4.44152   1
   8  10  22 102.331 9.64364  -2
  11  13  19 102.331 9.64364   1
   0   8  24 92.9016 7.41982  -2
  11  13  19 92.9016 7.41982   1
  11  17  17 77.8686 5.96220  -2
  13  13  19 77.8686 5.96220   1
   0   6  26 36.0867 6.79215  -2
  13  13  19 36.0867 6.79215   1
   8   8  24 22.2642 11.1725  -2
  13  13  19 22.2642 11.1725   1
   3   7  23 4.55101 2.68212  -2
   1  15  19 4.55101 2.68212   1
   4   8  22 -6.6859 7.95699  -2
   1  15  19 -6.6859 7.95699   1
   2  16  18 19.8872 19.0660  -2
   1  15  19 19.8872 19.0660   1
   3  17  17 151.788 5.11731  -2
   1  15  19 151.788 5.11731   1
   2   6  24 169.292 13.7306  -2
   3  15  19 169.292 13.7306   1
   6  10  22 144.413 7.53850  -2
   3  15  19 144.413 7.53850   1
   2  14  20 95.7107 22.4420  -2
   3  15  19 95.7107 22.4420   1
   4  16  18 405.230 22.9414  -2
   3  15  19 405.230 22.9414   1
   7  11  21 384.497 9.02772  -2
   5  15  19 384.497 9.02772   1
   1  13  21 458.488 11.0514  -2
   5  15  19 458.488 11.0514   1
   0   4  24 586.436 28.1983  -2
   5  15  19 586.436 28.1983   1
   4  14  20 398.616 27.2336  -2
   5  15  19 398.616 27.2336   1
   8  12  20 307.840 9.59002  -2
   7  15  19 307.840 9.59002   1
   1   3  25 629.982 13.2168  -2
   7  15  19 629.982 13.2168   1
   5  13  21 295.504 7.40238  -2
   7  15  19 295.504 7.40238   1
   0  12  22 496.372 38.4596  -2
   7  15  19 496.372 38.4596   1
  10  14  20 78.7602 5.69313  -2
   9  15  19 78.7602 5.69313   1
   2   2  26 319.107 14.5961  -2
   9  15  19 319.107 14.5961   1
   6  12  22 129.760 9.24089  -2
   9  15  19 129.760 9.24089   1
   0  10  24 274.388 17.0299  -2
   9  15  19 274.388 17.0299   1
   1   9  25 125.121 4.38226  -2
  11  15  19 125.121 4.38226   1
  11  15  19 17.3456 2.89135  -2
  11  15  19 17.3456 2.89135   1
   6  10  24 21.1382 9.75851  -2
  11  15  19 21.1382 9.75851   1
   0   4  26 66.0287 12.0689  -2
  11  15  19 66.0287 12.0689   1
  12  16  18 41.5294 5.92567  -2
  13  15  19 41.5294 5.92567   1
   1   5  27 9.14119 2.48716  -2
  13  15  19 9.14119 2.48716   1
   7   9  25 14.2518 2.82491  -2
  13  15  19 14.2518 2.82491   1
   2   8  26 30.3269 8.19177  -2
  13  15  19 30.3269 8.19177   1
   2   6  28 106.294 8.01819  -2
  15  15  19 106.294 8.01819   1
  14  18  18 169.608 10.6375  -2
  15  15  19 169.608 10.6375   1
   8   8  26 53.6063 13.9792  -2
  15  15  19 53.6063 13.9792   1
   6   8  24 84.6484 9.50287  -2
   1  17  19 84.6484 9.50287   1
   1  17  19 101.966 4.61409  -2
   1  17  19 101.966 4.61409   1
   4   6  24 72.5209 4.98015  -2
   1  17  19 72.5209 4.98015   1
   2  18  18 216.241 26.9295  -2
   1  17  19 216.241 26.9295   1
   7   9  23 334.537 8.68546  -2
   3  17  19 334.537 8.68546   1
   3   5  25 364.782 8.92994  -2
   3  17  19 364.782 8.92994   1
   2  16  20 389.844 26.7069  -2
   3  17  19 389.844 26.7069   1
   0  16  20 337.897 32.4904  -2
   3  17  19 337.897 32.4904   1
   3  15  21 779.168 15.1616  -2
   5  17  19 779.168 15.1616   1
   8  10  22 819.532 19.9748  -2
   5  17  19 819.532 19.9748   1
   2   4  26 836.322 26.8846  -2
   5  17  19 836.322 26.8846   1
   0  14  22 912.231 46.1121  -2
   5  17  19 912.231 46.1121   1
   0   2  26 1089.31 33.5801  -2
   7  17  19 1089.31 33.5801   1
   1  13  23 974.500 21.4760  -2
   7  17  19 974.500 21.4760   1
  10  12  22 927.441 18.7651  -2
   7  17  19 927.441 18.7651   1
   4  14  22 796.021 28.5007  -2
   7  17  19 796.021 28.5007   1
   4  12  24 472.258 19.6404  -2
   9  17  19 472.258 19.6404   1
   2  12  24 569.675 32.4887  -2
   9  17  19 569.675 32.4887   1
   1   1  27 546.588 10.7879  -2
   9  17  19 546.588 10.7879   1
  11  13  21 431.329 9.81166  -2
   9  17  19 431.329 9.81166   1
   5  11  25 180.432 5.87239  -2
  11  17  19 180.432 5.87239   1
  12  14  20 154.769 7.21928  -2
  11  17  19 154.769 7.21928   1
   2  10  26 236.010 13.0666  -2
  11  17  19 236.010 13.0666   1
   0   2  28 157.264 8.55505  -2
  11  17  19 157.264 8.55505   1
   2   4  28 122.196 9.70619  -2
  13  17  19 122.196 9.70619   1
  14  16  20 110.552 6.85681  -2
  13  17  19 110.552 6.85681   1
   6  10  26 108.132 11.1829  -2
  13  17  19 108.132 11.1829   1
   3   9  27 87.2021 3.92890  -2
  13  17  19 87.2021 3.92890   1
   6   8  28 311.189 11.1221  -2
  15  17  19 311.189 11.1221   1
  15  17  19 312.820 8.53614  -2
  15  17  19 312.820 8.53614   1
   3   5  29 333.742 8.22253  -2
  15  17  19 333.742 8.22253   1
   4   8  28 279.768 13.2095  -2
  15  17  19 279.768 13.2095   1
   7   7  29 554.647 16.7861  -2
  17  17  19 554.647 16.7861   1
   4   6  30 561.582 15.2598  -2
  17  17  19 561.582 15.2598   1
  16  18  18 598.326 20.2138  -2
  17  17  19 598.326 20.2138   1
   7   7  25 167.268 10.2164  -2
   1  19  19 167.268 10.2164   1
   0  18  20 115.041 14.2349  -2
   1  19  19 115.041 14.2349   1
   6   6  26 143.924 15.2567  -2
   1  19  19 143.924 15.2567   1
   1  17  21 292.779 8.02409  -2
   3  19  19 292.779 8.02409   1
   4   4  26 312.741 20.0110  -2
   3  19  19 312.741 20.0110   1
   8   8  24 339.310 21.1245  -2
   3  19  19 339.310 21.1245   1
  10  10  24 824.472 28.0437  -2
   5  19  19 824.472 28.0437   1
   2  16  22 642.543 31.8893  -2
   5  19  19 642.543 31.8893   1
   3   3  27 704.485 26.5570  -2
   5  19  19 704.485 26.5570   1
   2  14  24 767.850 33.5506  -2
   7  19  19 767.850 33.5506   1
  11  11  23 927.103 25.9486  -2
   7  19  19 927.103 25.9486   1
   2   2  28 570.858 27.2241  -2
   7  19  19 570.858 27.2241   1
  12  12  22 539.701 18.0931  -2
   9  19  19 539.701 18.0931   1
   3  13  25 395.750 9.18473  -2
   9  19  19 395.750 9.18473   1
   0   0  28 354.297 16.1633  -2
   9  19  19 354.297 16.1633   1
  14  14  22 238.396 11.4143  -2
  11  19  19 238.396 11.4143   1
   1   1  29 91.6116 5.13802  -2
  11  19  19 91.6116 5.13802   1
   4  12  26 146.047 13.3619  -2
  11  19  19 146.047 13.3619   1
   2   2  30 126.706 10.2146  -2
  13  19  19 126.706 10.2146   1
   4  10  28 123.616 7.90312  -2
  13  19  19 123.616 7.90312   1
  15  15  21 98.2192 6.87169  -2
  13  19  19 98.2192 6.87169   1
  16  16  20 303.315 13.6861  -2
  15  19  19 303.315 13.6861   1
   5   9  29 327.900 7.87513  -2
  15  19  19 327.900 7.87513   1
   4   4  30 389.959 17.8262  -2
  15  19  19 389.959 17.8262   1
   6   8  30 545.375 15.0629  -2
  17  19  19 545.375 15.0629   1
   5   5  31 547.123 16.4995  -2
  17  19  19 547.123 16.4995   1
  18  18  20 549.867 19.4683  -2
  17  19  19 549.867 19.4683   1
  19  19  19 542.257 31.4662  -2
  19  19  19 542.257 31.4662   1
   6   6  32 493.733 19.3918  -2
  19  19  19 493.733 19.3918   1
   7  13  13 818.025 52.3826  -2
   0   0  20 818.025 52.3826   1
   8  12  14 223.091 4.81968  -2
   0   2  20 223.091 4.81968   1
   5  13  15 89.9373 5.98310  -2
   0   2  20 89.9373 5.98310   1
   4  14  14 26.9764 3.09700  -2
   2   2  20 26.9764 3.09700   1
   9  13  13 241.192 20.5378  -2
   2   2  20 241.192 20.5378   1
   7  11  15 16.1927 8.82164  -2
   2   2  20 16.1927 8.82164   1
   4  12  16 70.0221 2.98454  -2
   0   4  20 70.0221 2.98454   1
   9  11  15 121.389 9.52558  -2
   0   4  20 121.389 9.52558   1
   8  10  16 198.086 5.70681  -2
   2   4  20 198.086 5.70681   1
  11  11  13 576.551 45.2131  -2
   2   4  20 576.551 45.2131   1
   5  11  17 273.149 12.4934  -2
   2   4  20 273.149 12.4934   1
   3  13  15 202.564 10.5729  -2
   2   4  20 202.564 10.5729   1
   1  15  15 546.159 19.5009  -2
   4   4  20 546.159 19.5009   1
  12  12  12 783.738 19.8448  -2
   4   4  20 783.738 19.8448   1
   7   9  17 776.808 30.5771  -2
   4   4  20 776.808 30.5771   1
   9  11  15 227.376 17.2627  -2
   0   6  20 227.376 17.2627   1
   3  11  17 171.631 17.5336  -2
   0   6  20 171.631 17.5336   1
   9   9  17 422.332 19.6479  -2
   2   6  20 422.332 19.6479   1
   4  10  18 418.166 10.1420  -2
   2   6  20 418.166 10.1420   1
   1  13  17 402.334 14.4042  -2
   2   6  20 402.334 14.4042   1
  10  12  14 515.039 9.80558  -2
   2   6  20 515.039 9.80558   1
   0  14  16 830.083 14.0730  -2
   4   6  20 830.083 14.0730   1
   8   8  18 1092.37 20.6481  -2
   4   6  20 1092.37 20.6481   1
   5   9  19 768.296 26.0115  -2
   4   6  20 768.296 26.0115   1
  11  13  13 916.383 65.5897  -2
   4   6  20 916.383 65.5897   1
   1  15  15 1124.45 42.8145  -2
   6   6  20 1124.45 42.8145   1
  11  11  15 977.196 69.4558  -2
   6   6  20 977.196 69.4558   1
   7   7  19 1464.09 67.4779  -2
   6   6  20 1464.09 67.4779   1
   8  12  16 2.72345 2.38866  -2
   0   8  20 2.72345 2.38866   1
   1  11  19 25.1523 7.45705  -2
   0   8  20 25.1523 7.45705   1
   0  12  18 106.800 3.68463  -2
   2   8  20 106.800 3.68463   1
   9  13  15 48.8310 10.8451  -2
   2   8  20 48.8310 10.8451   1
   7  11  17 158.340 11.6220  -2
   2   8  20 158.340 11.6220   1
   3   9  19 110.037 8.83859  -2
   2   8  20 110.037 8.83859   1
   4   8  20 386.971 9.15102  -2
   4   8  20 386.971 9.15102   1
   1  13  17 366.429 14.3747  -2
   4   8  20 366.429 14.3747   1
   7   9  19 490.744 21.6448  -2
   4   8  20 490.744 21.6448   1
   9  13  15 272.808 13.5793  -2
   4   8  20 272.808 13.5793   1
   3  15  17 467.342 10.1591  -2
   6   8  20 467.342 10.1591   1
   6   8  20 656.060 13.9772  -2
   6   8  20 656.060 13.9772   1
  10  12  16 460.978 9.58658  -2
   6   8  20 460.978 9.58658   1
   5   7  21 513.333 21.2885  -2
   6   8  20 513.333 21.2885   1
  11  11  17 161.629 16.7136  -2
   8   8  20 161.629 16.7136   1
   4  16  16 245.836 8.23040  -2
   8   8  20 245.836 8.23040   1
   5   7  21 230.433 16.3584  -2
   8   8  20 230.433 16.3584   1
   0  10  20 137.585 5.06166  -2
   0  10  20 137.585 5.06166   1
   7  13  17 161.669 13.0424  -2
   0  10  20 161.669 13.0424   1
   1  11  19 56.8521 7.44616  -2
   2  10  20 56.8521 7.44616   1
   1   9  21 59.3847 10.3310  -2
   2  10  20 59.3847 10.3310   1
   6  12  18 99.4911 4.75388  -2
   2  10  20 99.4911 4.75388   1
   7  15  15 53.0110 10.8054  -2
   2  10  20 53.0110 10.8054   1
   3  13  19 40.6124 5.89714  -2
   4  10  20 40.6124 5.89714   1
   3   7  21 36.7440 7.57826  -2
   4  10  20 36.7440 7.57826   1
   5  11  19 61.1417 13.8262  -2
   4  10  20 61.1417 13.8262   1
   8  14  16 42.1663 2.78662  -2
   4  10  20 42.1663 2.78662   1
   4  14  18 193.949 6.19427  -2
   6  10  20 193.949 6.19427   1
   5   9  21 128.942 15.1683  -2
   6  10  20 128.942 15.1683   1
   4   6  22 109.067 4.23683  -2
   6  10  20 109.067 4.23683   1
   9  13  17 116.803 8.96424  -2
   6  10  20 116.803 8.96424   1
   4   8  22 3.36085 2.67084  -2
   8  10  20 3.36085 2.67084   1
   5  15  17 190.187 6.56275  -2
   8  10  20 190.187 6.56275   1
   9  11  19 7.98827 8.75620  -2
   8  10  20 7.98827 8.75620   1
   5   5  23 9.45163 11.0981  -2
   8  10  20 9.45163 11.0981   1
   3   7  23 121.837 13.7249  -2
  10  10  20 121.837 13.7249   1
   7  17  17 526.013 17.2567  -2
  10  10  20 526.013 17.2567   1
  10  10  20 152.542 6.96494  -2
  10  10  20 152.542 6.96494   1
   1   9  21 93.0051 9.48475  -2
   0  12  20 93.0051 9.48475   1
   5  15  17 248.917 17.6792  -2
   0  12  20 248.917 17.6792   1
   6  16  16 242.336 6.46357  -2
   2  12  20 242.336 6.46357   1
   0   8  22 64.8539 3.79852  -2
   2  12  20 64.8539 3.79852   1
   3  11  21 23.0176 6.88935  -2
   2  12  20 23.0176 6.88935   1
   5  13  19 91.7841 13.0121  -2
   2  12  20 91.7841 13.0121   1
   4  12  20 16.9026 2.04910  -2
   4  12  20 16.9026 2.04910   1
   1   7  23 49.4643 10.7289  -2
   4  12  20 49.4643 10.7289   1
   7  15  17 161.656 11.3576  -2
   4  12  20 161.656 11.3576   1
   3   5  23 68.6476 11.8489  -2
   6  12  20 68.6476 11.8489   1
   7  13  19 59.2629 15.6766  -2
   6  12  20 59.2629 15.6766   1
   5  13  19 78.1348 6.67839  -2
   6  12  20 78.1348 6.67839   1
   3  11  21 29.6016 19.1543  -2
   6  12  20 29.6016 19.1543   1
   3   9  23 30.5456 8.56938  -2
   8  12  20 30.5456 8.56938   1
   4   4  24 112.599 3.58788  -2
   8  12  20 112.599 3.58788   1
   7  15  19 181.314 6.58213  -2
   8  12  20 181.314 6.58213   1
   8  12  20 28.8237 3.11760  -2
   8  12  20 28.8237 3.11760   1
   2   8  24 174.906 6.70667  -2
  10  12  20 174.906 6.70667   1
   8  16  18 364.800 8.91266  -2
  10  12  20 364.800 8.91266   1
   9  11  21 228.218 12.1485  -2
  10  12  20 228.218 12.1485   1
   3   5  25 173.655 10.1663  -2
  10  12  20 173.655 10.1663   1
   9  17  17 341.896 13.3920  -2
  12  12  20 341.896 13.3920   1
   1   7  25 112.183 27.8595  -2
  12  12  20 112.183 27.8595   1
   9   9  23 173.766 19.4155  -2
  12  12  20 173.766 19.4155   1
   3   9  23 37.1816 8.32258  -2
   0  14  20 37.1816 8.32258   1
   4  16  18 294.326 7.64132  -2
   0  14  20 294.326 7.64132   1
   4  10  22 -2.3476 2.46322  -2
   2  14  20 -2.3476 2.46322   1
   1   7  23 24.6235 10.4264  -2
   2  14  20 24.6235 10.4264   1
   5  17  17 416.000 23.7895  -2
   2  14  20 416.000 23.7895   1
   3  15  19 57.4938 20.5178  -2
   2  14  20 57.4938 20.5178   1
   5  11  21 58.6849 5.80992  -2
   4  14  20 58.6849 5.80992   1
   0   6  24 106.747 4.71427  -2
   4  14  20 106.747 4.71427   1
   3  13  21 105.100 24.6859  -2
   4  14  20 105.100 24.6859   1
   5  15  19 273.218 22.0035  -2
   4  14  20 273.218 22.0035   1
   1   5  25 129.993 9.95750  -2
   6  14  20 129.993 9.95750   1
   6  14  20 110.580 4.22109  -2
   6  14  20 110.580 4.22109   1
   2  12  22 236.332 8.32372  -2
   6  14  20 236.332 8.32372   1
   7  13  21 97.1332 6.20726  -2
   6  14  20 97.1332 6.20726   1
   8  14  20 9.16799 2.14564  -2
   8  14  20 9.16799 2.14564   1
   7  13  21 17.1380 9.80450  -2
   8  14  20 17.1380 9.80450   1
   3   3  25 200.496 20.6988  -2
   8  14  20 200.496 20.6988   1
   1  11  23 216.980 21.8978  -2
   8  14  20 216.980 21.8978   1
   2   4  26 50.3437 2.85547  -2
  10  14  20 50.3437 2.85547   1
   7  11  23 83.0028 10.9575  -2
  10  14  20 83.0028 10.9575   1
   9  15  19 49.6115 5.42128  -2
  10  14  20 49.6115 5.42128   1
   1   9  25 140.731 10.3955  -2
  10  14  20 140.731 10.3955   1
   0   8  26 76.5022 3.46219  -2
  12  14  20 76.5022 3.46219   1
  11  17  19 94.0776 6.27769  -2
  12  14  20 94.0776 6.27769   1
   1   5  27 26.7695 5.80819  -2
  12  14  20 26.7695 5.80819   1
   8  10  24 55.0936 3.75809  -2
  12  14  20 55.0936 3.75809   1
  12  18  18 82.2677 6.56051  -2
  14  14  20 82.2677 6.56051   1
   1   7  27 -17.545 8.86117  -2
  14  14  20 -17.545 8.86117   1
   9   9  25 12.0070 21.3788  -2
  14  14  20 12.0070 21.3788   1
   3  17  19 139.748 12.2481  -2
   0  16  20 139.748 12.2481   1
   4   8  24 2.14062 2.57488  -2
   0  16  20 2.14062 2.57488   1
   5   9  23 47.3719 6.75673  -2
   2  16  20 47.3719 6.75673   1
   2  16  20 81.6156 4.00081  -2
   2  16  20 81.6156 4.00081   1
   3   7  25 63.5477 8.95491  -2
   2  16  20 63.5477 8.95491   1
   3  17  19 209.915 25.8262  -2
   2  16  20 209.915 25.8262   1
   4  16  20 395.909 8.34180  -2
   4  16  20 395.909 8.34180   1
   7  11  23 341.457 10.6733  -2
   4  16  20 341.457 10.6733   1
   1   5  25 325.685 20.8475  -2
   4  16  20 325.685 20.8475   1
   1  15  21 301.212 23.4083  -2
   4  16  20 301.212 23.4083   1
   5  15  21 395.777 15.9836  -2
   6  16  20 395.777 15.9836   1
   1  13  23 595.537 33.3357  -2
   6  16  20 595.537 33.3357   1
   0   4  26 450.610 10.2452  -2
   6  16  20 450.610 10.2452   1
   8  12  22 505.905 11.3034  -2
   6  16  20 505.905 11.3034   1
   1   3  27 235.670 13.2480  -2
   8  16  20 235.670 13.2480   1
   5  13  23 321.112 14.3145  -2
   8  16  20 321.112 14.3145   1
   9  13  21 270.610 9.43190  -2
   8  16  20 270.610 9.43190   1
   0  12  24 520.215 13.3060  -2
   8  16  20 520.215 13.3060   1
   6  12  24 148.653 5.40903  -2
  10  16  20 148.653 5.40903   1
  11  15  21 68.3622 5.82281  -2
  10  16  20 68.3622 5.82281   1
   1   3  27 97.6495 7.30345  -2
  10  16  20 97.6495 7.30345   1
   1  11  25 350.432 19.7563  -2
  10  16  20 350.432 19.7563   1
   0   4  28 11.1354 2.23778  -2
  12  16  20 11.1354 2.23778   1
   7  11  25 34.1173 9.97762  -2
  12  16  20 34.1173 9.97762   1
  12  16  20 8.82910 2.94436  -2
  12  16  20 8.82910 2.94436   1
   1   9  27 40.5859 9.48849  -2
  12  16  20 40.5859 9.48849   1
  13  17  19 68.0013 6.35482  -2
  14  16  20 68.0013 6.35482   1
   2   8  28 33.6165 2.82919  -2
  14  16  20 33.6165 2.82919   1
   1   5  29 77.5563 7.37913  -2
  14  16  20 77.5563 7.37913   1
   7   9  27 29.9376 8.99543  -2
  14  16  20 29.9376 8.99543   1
   8   8  28 193.626 8.95372  -2
  16  16  20 193.626 8.95372   1
  15  19  19 274.240 13.2816  -2
  16  16  20 274.240 13.2816   1
   3   7  29 293.788 13.7817  -2
  16  16  20 293.788 13.7817   1
   1  19  19 59.2636 12.6960  -2
   0  18  20 59.2636 12.6960   1
   5   7  25 82.1956 15.7733  -2
   0  18  20 82.1956 15.7733   1
   4   6  26 144.682 6.58998  -2
   2  18  20 144.682 6.58998   1
   7   9  25 126.632 9.61367  -2
   2  18  20 126.632 9.61367   1
   2  18  20 162.952 6.38074  -2
   2  18  20 162.952 6.38074   1
   1  17  21 98.8776 16.7545  -2
   2  18  20 98.8776 16.7545   1
   8  10  24 435.687 11.7866  -2
   4  18  20 435.687 11.7866   1
   0  16  22 434.385 11.0108  -2
   4  18  20 434.385 11.0108   1
   3   5  27 448.033 21.9027  -2
   4  18  20 448.033 21.9027   1
   3  17  21 422.741 28.0847  -2
   4  18  20 422.741 28.0847   1
   3  15  23 585.072 28.2359  -2
   6  18  20 585.072 28.2359   1
   9  11  23 704.837 16.4250  -2
   6  18  20 704.837 16.4250   1
   1  15  23 689.119 38.4621  -2
   6  18  20 689.119 38.4621   1
   1   3  27 629.671 19.9393  -2
   6  18  20 629.671 19.9393   1
  11  13  23 668.758 15.8162  -2
   8  18  20 668.758 15.8162   1
   1  13  25 623.259 25.4196  -2
   8  18  20 623.259 25.4196   1
   4  14  24 413.043 9.34874  -2
   8  18  20 413.043 9.34874   1
   0   2  28 359.119 8.80017  -2
   8  18  20 359.119 8.80017   1
  12  14  22 280.244 7.84907  -2
  10  18  20 280.244 7.84907   1
   2  12  26 257.653 8.10439  -2
  10  18  20 257.653 8.10439   1
   1   1  29 116.661 7.33357  -2
  10  18  20 116.661 7.33357   1
   5  13  25 156.132 12.2419  -2
  10  18  20 156.132 12.2419   1
   1   3  29 51.3706 6.15423  -2
  12  18  20 51.3706 6.15423   1
  13  15  21 67.2125 6.37359  -2
  12  18  20 67.2125 6.37359   1
   5  11  27 59.8142 9.97876  -2
  12  18  20 59.8142 9.97876   1
   3  11  27 53.9423 10.2131  -2
  12  18  20 53.9423 10.2131   1
  15  17  21 141.569 7.46625  -2
  14  18  20 141.569 7.46625   1
   3   9  29 143.136 8.37115  -2
  14  18  20 143.136 8.37115   1
   2   4  30 159.659 5.55781  -2
  14  18  20 159.659 5.55781   1
   6  10  28 133.441 5.28494  -2
  14  18  20 133.441 5.28494   1
   4   8  30 364.436 8.32910  -2
  16  18  20 364.436 8.32910   1
   7   9  29 345.558 11.6706  -2
  16  18  20 345.558 11.6706   1
   3   5  31 366.434 12.5759  -2
  16  18  20 366.434 12.5759   1
  16  18  20 419.325 10.4459  -2
  16  18  20 419.325 10.4459   1
  17  19  19 544.651 19.2660  -2
  18  18  20 544.651 19.2660   1
   5   7  31 489.228 14.8083  -2
  18  18  20 489.228 14.8083   1
   7   7  31 486.909 21.4035  -2
  18  18  20 486.909 21.4035   1
   0  20  20 18.4819 5.33784  -2
   0  20  20 18.4819 5.33784   1
   7   7  27 78.6383 12.0234  -2
   0  20  20 78.6383 12.0234   1
   8   8  26 52.3996 7.19941  -2
   2  20  20 52.3996 7.19941   1
   5   5  27 163.680 15.9365  -2
   2  20  20 163.680 15.9365   1
   1  19  21 53.7939 15.5527  -2
   2  20  20 53.7939 15.5527   1
   1  17  23 249.640 16.2890  -2
   4  20  20 249.640 16.2890   1
   9   9  25 275.522 16.9183  -2
   4  20  20 275.522 16.9183   1
   4   4  28 375.172 15.5016  -2
   4  20  20 375.172 15.5016   1
   2  16  24 371.813 10.1250  -2
   6  20  20 371.813 10.1250   1
   3   3  29 388.187 22.0202  -2
   6  20  20 388.187 22.0202   1
  11  11  25 669.080 24.4254  -2
   6  20  20 669.080 24.4254   1
  12  12  24 648.195 19.6150  -2
   8  20  20 648.195 19.6150   1
   3  15  25 232.616 21.0292  -2
   8  20  20 232.616 21.0292   1
   1   1  29 138.415 20.6901  -2
   8  20  20 138.415 20.6901   1
  13  13  23 387.385 14.7388  -2
  10  20  20 387.385 14.7388   1
   0   0  30 56.5390 3.90883  -2
  10  20  20 56.5390 3.90883   1
   3  13  27 49.1689 10.0491  -2
  10  20  20 49.1689 10.0491   1
   4  12  28 18.4048 2.60167  -2
  12  20  20 18.4048 2.60167   1
  15  15  23 49.1085 8.42278  -2
  12  20  20 49.1085 8.42278   1
   1   1  31 25.6593 8.08667  -2
  12  20  20 25.6593 8.08667   1
   5  11  29 107.839 7.56383  -2
  14  20  20 107.839 7.56383   1
  16  16  22 52.2695 6.07466  -2
  14  20  20 52.2695 6.07466   1
   3   3  31 94.1065 10.0023  -2
  14  20  20 94.1065 10.0023   1
   4   4  32 194.976 9.21062  -2
  16  20  20 194.976 9.21062   1
   5   9  31 233.907 9.82293  -2
  16  20  20 233.907 9.82293   1
  17  17  21 258.310 13.2432  -2
  16  20  20 258.310 13.2432   1
   6   8  32 288.017 7.95252  -2
  18  20  20 288.017 7.95252   1
   5   5  33 207.401 13.0373  -2
  18  20  20 207.401 13.0373   1
  19  19  21 254.990 13.6386  -2
  18  20  20 254.990 13.6386   1
   7   7  33 158.299 11.5741  -2
  20  20  20 158.299 11.5741   1
  20  20  20 144.948 14.9134  -2
  20  20  20 144.948 14.9134   1
   8  14  14 535.118 23.5117  -2
   1   1  21 535.118 23.5117   1
   7  13  15 506.233 9.73298  -2
   1   1  21 506.233 9.73298   1
   6  14  14 517.879 27.0657  -2
   1   1  21 517.879 27.0657   1
   8  12  16 32.7158 7.97500  -2
   1   3  21 32.7158 7.97500   1
   4  14  16 60.7577 5.29781  -2
   1   3  21 60.7577 5.29781   1
   6  12  16 80.7417 8.41947  -2
   1   3  21 80.7417 8.41947   1
  10  12  14 248.281 17.2465  -2
   1   3  21 248.281 17.2465   1
  11  13  13 319.803 8.77619  -2
   3   3  21 319.803 8.77619   1
   7  11  17 107.245 3.44945  -2
   3   3  21 107.245 3.44945   1
   3  15  15 7.86831 2.53087  -2
   3   3  21 7.86831 2.53087   1
   4  12  18 44.8355 8.42515  -2
   1   5  21 44.8355 8.42515   1
  11  11  15 141.438 3.76388  -2
   1   5  21 141.438 3.76388   1
   3  13  17 33.9799 2.34999  -2
   1   5  21 33.9799 2.34999   1
  10  10  16 51.4147 10.9527  -2
   1   5  21 51.4147 10.9527   1
   2  14  16 152.731 10.2832  -2
   3   5  21 152.731 10.2832   1
  12  12  14 377.189 24.3968  -2
   3   5  21 377.189 24.3968   1
   6  10  18 328.662 15.3598  -2
   3   5  21 328.662 15.3598   1
   8  10  18 191.192 12.4346  -2
   3   5  21 191.192 12.4346   1
   7   9  19 520.697 11.5179  -2
   5   5  21 520.697 11.5179   1
   0  16  16 382.015 14.0258  -2
   5   5  21 382.015 14.0258   1
  10  12  16 -2.6678 12.5255  -2
   1   7  21 -2.6678 12.5255   1
   9  11  17 -1.8913 1.95792  -2
   1   7  21 -1.8913 1.95792   1
   3  11  19 -4.3416 2.27755  -2
   1   7  21 -4.3416 2.27755   1
   2  12  18 18.9265 10.8762  -2
   1   7  21 18.9265 10.8762   1
   0  14  18 71.1285 6.74733  -2
   3   7  21 71.1285 6.74733   1
   8  10  18 104.915 10.3121  -2
   3   7  21 104.915 10.3121   1
  10  14  14 128.353 15.7729  -2
   3   7  21 128.353 15.7729   1
   4  10  20 71.5233 9.59109  -2
   3   7  21 71.5233 9.59109   1
   1  15  17 237.477 5.02842  -2
   5   7  21 237.477 5.02842   1
  11  13  15 267.858 6.48857  -2
   5   7  21 267.858 6.48857   1
   8   8  20 246.920 19.2852  -2
   5   7  21 246.920 19.2852   1
   6   8  20 445.856 27.8921  -2
   5   7  21 445.856 27.8921   1
   7   7  21 189.905 6.12286  -2
   7   7  21 189.905 6.12286   1
  12  12  16 186.260 17.7954  -2
   7   7  21 186.260 17.7954   1
   2  16  16 142.730 9.03601  -2
   7   7  21 142.730 9.03601   1
   0  12  20 113.342 8.79370  -2
   1   9  21 113.342 8.79370   1
   2  10  20 81.2334 7.56162  -2
   1   9  21 81.2334 7.56162   1
   8  14  16 80.9278 12.1377  -2
   1   9  21 80.9278 12.1377   1
   8  12  18 70.6153 11.7331  -2
   1   9  21 70.6153 11.7331   1
   7  11  19 42.8107 3.26055  -2
   3   9  21 42.8107 3.26055   1
   3   9  21 2.32036 2.73371  -2
   3   9  21 2.32036 2.73371   1
   1  13  19 12.1833 2.27080  -2
   3   9  21 12.1833 2.27080   1
   9  15  15 0.73622 1.99633  -2
   3   9  21 0.73622 1.99633   1
  10  14  16 81.7021 12.5475  -2
   5   9  21 81.7021 12.5475   1
   2  14  18 66.2642 5.58132  -2
   5   9  21 66.2642 5.58132   1
   6  10  20 122.318 12.5329  -2
   5   9  21 122.318 12.5329   1
   4   8  22 86.6980 7.57163  -2
   5   9  21 86.6980 7.57163   1
  10  12  18 48.6599 11.5950  -2
   7   9  21 48.6599 11.5950   1
   4  16  18 284.933 7.33404  -2
   7   9  21 284.933 7.33404   1
   6   8  22 51.2990 10.2492  -2
   7   9  21 51.2990 10.2492   1
   6   6  22 55.1654 12.4020  -2
   7   9  21 55.1654 12.4020   1
   5  17  17 490.235 13.8297  -2
   9   9  21 490.235 13.8297   1
   5   7  23 11.8795 2.96043  -2
   9   9  21 11.8795 2.96043   1
  11  11  19 104.171 5.62780  -2
   9   9  21 104.171 5.62780   1
   7  15  17 259.994 6.96999  -2
   1  11  21 259.994 6.96999   1
   1  11  21 134.235 5.32296  -2
   1  11  21 134.235 5.32296   1
   0  10  22 169.929 10.1590  -2
   1  11  21 169.929 10.1590   1
   6  14  18 218.803 21.0255  -2
   1  11  21 218.803 21.0255   1
   2  12  20 10.9061 5.88495  -2
   3  11  21 10.9061 5.88495   1
   2   8  22 6.42812 7.33547  -2
   3  11  21 6.42812 7.33547   1
   8  16  16 98.4287 14.7047  -2
   3  11  21 98.4287 14.7047   1
   6  12  20 17.1626 13.2470  -2
   3  11  21 17.1626 13.2470   1
   3   7  23 8.46115 1.92666  -2
   5  11  21 8.46115 1.92666   1
   4  14  20 42.6200 6.11951  -2
   5  11  21 42.6200 6.11951   1
   8  14  18 38.7309 11.5812  -2
   5  11  21 38.7309 11.5812   1
   5  11  21 10.9318 2.85682  -2
   5  11  21 10.9318 2.85682   1
   5  15  19 210.998 6.72915  -2
   7  11  21 210.998 6.72915   1
   9  13  19 11.8637 2.42921  -2
   7  11  21 11.8637 2.42921   1
   4  10  22 22.2833 15.6151  -2
   7  11  21 22.2833 15.6151   1
   4   6  24 16.2995 11.6344  -2
   7  11  21 16.2995 11.6344   1
  10  12  20 208.954 9.55957  -2
   9  11  21 208.954 9.55957   1
   4   8  24 137.213 13.0310  -2
   9  11  21 137.213 13.0310   1
   6  16  18 536.015 12.3152  -2
   9  11  21 536.015 12.3152   1
   4   6  24 100.112 13.6888  -2
   9  11  21 100.112 13.6888   1
   3   7  25 262.014 8.62422  -2
  11  11  21 262.014 8.62422   1
   8  18  18 629.707 19.8835  -2
  11  11  21 629.707 19.8835   1
  10  10  22 412.236 21.6629  -2
  11  11  21 412.236 21.6629   1
   5  15  19 329.821 9.38897  -2
   1  13  21 329.821 9.38897   1
   1   9  23 201.069 7.00961  -2
   1  13  21 201.069 7.00961   1
   6  16  18 572.167 24.8068  -2
   1  13  21 572.167 24.8068   1
   2  10  22 208.723 11.4483  -2
   1  13  21 208.723 11.4483   1
   0   8  24 95.3492 12.1747  -2
   3  13  21 95.3492 12.1747   1
   4  12  22 89.6885 8.25709  -2
   3  13  21 89.6885 8.25709   1
   6  16  18 476.640 19.1147  -2
   3  13  21 476.640 19.1147   1
   4  14  20 38.2556 20.6062  -2
   3  13  21 38.2556 20.6062   1
   7  15  19 147.361 4.84365  -2
   5  13  21 147.361 4.84365   1
   2   6  24 37.7612 8.20551  -2
   5  13  21 37.7612 8.20551   1
   4  12  22 77.1053 10.4775  -2
   5  13  21 77.1053 10.4775   1
   5  13  21 7.69444 2.75522  -2
   5  13  21 7.69444 2.75522   1
   3   5  25 51.5038 3.41162  -2
   7  13  21 51.5038 3.41162   1
   6  14  20 80.8363 6.66371  -2
   7  13  21 80.8363 6.66371   1
   3  11  23 194.841 7.27628  -2
   7  13  21 194.841 7.27628   1
   8  14  20 29.0850 10.2934  -2
   7  13  21 29.0850 10.2934   1
   2  10  24 292.688 19.8416  -2
   9  13  21 292.688 19.8416   1
   8  16  20 240.776 7.82595  -2
   9  13  21 240.776 7.82595   1
   4   4  26 130.995 10.7597  -2
   9  13  21 130.995 10.7597   1
   8  12  22 215.598 10.4434  -2
   9  13  21 215.598 10.4434   1
   2   8  26 234.856 14.0710  -2
  11  13  21 234.856 14.0710   1
   9  11  23 374.701 9.73898  -2
  11  13  21 374.701 9.73898   1
   9  17  19 387.844 9.43382  -2
  11  13  21 387.844 9.43382   1
   2   6  26 207.238 9.79786  -2
  11  13  21 207.238 9.79786   1
   1   7  27 188.391 5.38226  -2
  13  13  21 188.391 5.38226   1
  10  10  24 352.590 20.7200  -2
  13  13  21 352.590 20.7200   1
  10  18  18 339.200 13.7466  -2
  13  13  21 339.200 13.7466   1
   4  18  18 384.174 33.7651  -2
   1  15  21 384.174 33.7651   1
   4  10  24 108.999 8.90959  -2
   1  15  21 108.999 8.90959   1
   4  16  20 169.586 15.7613  -2
   1  15  21 169.586 15.7613   1
   2   8  24 17.7777 11.3309  -2
   1  15  21 17.7777 11.3309   1
   3  15  21 12.6186 3.37749  -2
   3  15  21 12.6186 3.37749   1
   5  11  23 100.023 5.11894  -2
   3  15  21 100.023 5.11894   1
   5  17  19 418.556 9.57615  -2
   3  15  21 418.556 9.57615   1
   1   7  25 25.9828 3.59067  -2
   3  15  21 25.9828 3.59067   1
   6  12  22 121.670 6.62477  -2
   5  15  21 121.670 6.62477   1
   0   6  26 60.2157 9.66898  -2
   5  15  21 60.2157 9.66898   1
   6  16  20 232.494 14.8019  -2
   5  15  21 232.494 14.8019   1
   2  14  22 116.469 26.5160  -2
   5  15  21 116.469 26.5160   1
   8  14  22 46.0243 6.30698  -2
   7  15  21 46.0243 6.30698   1
   6  14  22 33.1943 8.74382  -2
   7  15  21 33.1943 8.74382   1
   2   4  26 81.1622 10.1018  -2
   7  15  21 81.1622 10.1018   1
   2  12  24 325.174 23.4385  -2
   7  15  21 325.174 23.4385   1
   9  15  21 0.93732 2.13322  -2
   9  15  21 0.93732 2.13322   1
   3   3  27 6.61446 2.87692  -2
   9  15  21 6.61446 2.87692   1
   7  13  23 82.9851 4.14484  -2
   9  15  21 82.9851 4.14484   1
   1  11  25 281.612 8.62497  -2
   9  15  21 281.612 8.62497   1
   8  12  24 147.468 11.1391  -2
  11  15  21 147.468 11.1391   1
  10  16  20 51.7782 5.76943  -2
  11  15  21 51.7782 5.76943   1
   2   4  28 19.2102 5.87941  -2
  11  15  21 19.2102 5.87941   1
   0  10  26 153.618 16.4314  -2
  11  15  21 153.618 16.4314   1
   8  10  26 42.7982 7.51856  -2
  13  15  21 42.7982 7.51856   1
   0   8  28 47.6629 10.3650  -2
  13  15  21 47.6629 10.3650   1
  12  18  20 52.0622 6.23724  -2
  13  15  21 52.0622 6.23724   1
   0   6  28 39.8293 6.66389  -2
  13  15  21 39.8293 6.66389   1
   9   9  27 -4.4230 3.91871  -2
  15  15  21 -4.4230 3.91871   1
   1   7  29 40.1398 2.99837  -2
  15  15  21 40.1398 2.99837   1
  13  19  19 55.9366 6.14569  -2
  15  15  21 55.9366 6.14569   1
   5   9  25 0.85536 2.53642  -2
   1  17  21 0.85536 2.53642   1
   4   8  26 -5.1035 8.82153  -2
   1  17  21 -5.1035 8.82153   1
   3  19  19 160.657 5.91129  -2
   1  17  21 160.657 5.91129   1
   2  18  20 36.2396 10.5129  -2
   1  17  21 36.2396 10.5129   1
   2   6  26 91.0112 10.5404  -2
   3  17  21 91.0112 10.5404   1
   6  10  24 111.578 7.26878  -2
   3  17  21 111.578 7.26878   1
   2  16  22 95.9374 25.5618  -2
   3  17  21 95.9374 25.5618   1
   4  18  20 319.385 33.0490  -2
   3  17  21 319.385 33.0490   1
   1  15  23 370.252 10.6763  -2
   5  17  21 370.252 10.6763   1
   4  16  22 257.763 19.0358  -2
   5  17  21 257.763 19.0358   1
   1   5  27 251.953 7.23053  -2
   5  17  21 251.953 7.23053   1
   8  12  24 402.797 11.4348  -2
   5  17  21 402.797 11.4348   1
   5  15  23 237.883 6.68872  -2
   7  17  21 237.883 6.68872   1
   9  13  23 394.261 9.63154  -2
   7  17  21 394.261 9.63154   1
   0  14  24 413.151 27.1508  -2
   7  17  21 413.151 27.1508   1
   0   4  28 267.143 12.4287  -2
   7  17  21 267.143 12.4287   1
   2   2  28 79.8078 7.99668  -2
   9  17  21 79.8078 7.99668   1
   0  12  26 272.559 14.2840  -2
   9  17  21 272.559 14.2840   1
  10  14  22 162.705 7.31930  -2
   9  17  21 162.705 7.31930   1
   6  14  24 123.687 11.0917  -2
   9  17  21 123.687 11.0917   1
  12  16  22 29.6797 5.35937  -2
  11  17  21 29.6797 5.35937   1
   1  11  27 95.2859 5.28203  -2
  11  17  21 95.2859 5.28203   1
   1   3  29 21.5076 2.42895  -2
  11  17  21 21.5076 2.42895   1
   6  12  26 8.21813 11.2007  -2
  11  17  21 8.21813 11.2007   1
   7  11  27 2.17329 2.75950  -2
  13  17  21 2.17329 2.75950   1
   0   4  30 30.1398 6.28159  -2
  13  17  21 30.1398 6.28159   1
   2  10  28 -4.7282 9.42120  -2
  13  17  21 -4.7282 9.42120   1
  13  17  21 2.33804 2.89134  -2
  13  17  21 2.33804 2.89134   1
  14  18  20 118.147 7.23749  -2
  15  17  21 118.147 7.23749   1
   2   8  30 99.6261 8.09179  -2
  15  17  21 99.6261 8.09179   1
   2   6  30 153.284 8.47223  -2
  15  17  21 153.284 8.47223   1
   8  10  28 51.6999 7.33733  -2
  15  17  21 51.6999 7.33733   1
   3   7  31 255.186 6.85086  -2
  17  17  21 255.186 6.85086   1
   8   8  30 274.316 16.0883  -2
  17  17  21 274.316 16.0883   1
  16  20  20 255.618 13.2820  -2
  17  17  21 255.618 13.2820   1
   1  19  21 11.6661 2.87895  -2
   1  19  21 11.6661 2.87895   1
   5   7  27 92.4767 5.90566  -2
   1  19  21 92.4767 5.90566   1
   6   8  26 47.5430 8.75750  -2
   1  19  21 47.5430 8.75750   1
   2  20  20 28.6985 12.4606  -2
   1  19  21 28.6985 12.4606   1
   8  10  26 123.501 8.55817  -2
   3  19  21 123.501 8.55817   1
   4   6  28 260.096 13.1714  -2
   3  19  21 260.096 13.1714   1
   2  18  22 111.238 14.8784  -2
   3  19  21 111.238 14.8784   1
   0  18  22 94.1642 24.0959  -2
   3  19  21 94.1642 24.0959   1
   3  17  23 277.525 7.90908  -2
   5  19  21 277.525 7.90908   1
   0  16  24 375.556 19.3948  -2
   5  19  21 375.556 19.3948   1
   9  11  25 457.886 12.4705  -2
   5  19  21 457.886 12.4705   1
   2   4  28 302.052 13.8235  -2
   5  19  21 302.052 13.8235   1
   1  15  25 349.437 10.5215  -2
   7  19  21 349.437 10.5215   1
   1   3  29 250.404 7.02068  -2
   7  19  21 250.404 7.02068   1
  10  12  24 568.134 15.5068  -2
   7  19  21 568.134 15.5068   1
   4  16  24 252.717 13.6093  -2
   7  19  21 252.717 13.6093   1
  12  14  24 353.979 10.9894  -2
   9  19  21 353.979 10.9894   1
   0   2  30 75.0023 7.48293  -2
   9  19  21 75.0023 7.48293   1
   2  14  26 148.942 23.8927  -2
   9  19  21 148.942 23.8927   1
   4  14  26 79.1257 17.5432  -2
   9  19  21 79.1257 17.5432   1
  13  15  23 156.643 5.78292  -2
  11  19  21 156.643 5.78292   1
   2  12  28 22.0506 8.50515  -2
  11  19  21 22.0506 8.50515   1
   5  13  27 11.5456 2.61636  -2
  11  19  21 11.5456 2.61636   1
   0   2  30 21.5233 5.18925  -2
  11  19  21 21.5233 5.18925   1
   3  11  29 22.4268 2.55998  -2
  13  19  21 22.4268 2.55998   1
   6  12  28 11.1853 7.05354  -2
  13  19  21 11.1853 7.05354   1
  14  16  22 11.6580 5.83096  -2
  13  19  21 11.6580 5.83096   1
   1   3  31 17.8361 2.70202  -2
  13  19  21 17.8361 2.70202   1
  16  18  22 99.3639 7.18106  -2
  15  19  21 99.3639 7.18106   1
   2   4  32 78.5682 7.33900  -2
  15  19  21 78.5682 7.33900   1
   4  10  30 113.304 8.09851  -2
  15  19  21 113.304 8.09851   1
   6  10  30 140.665 8.40064  -2
  15  19  21 140.665 8.40064   1
   7   9  31 221.658 6.99841  -2
  17  19  21 221.658 6.99841   1
   4   6  32 242.766 9.82500  -2
  17  19  21 242.766 9.82500   1
   4   8  32 197.449 9.31078  -2
  17  19  21 197.449 9.31078   1
  17  19  21 233.838 7.64179  -2
  17  19  21 233.838 7.64179   1
   5   7  33 159.432 6.08959  -2
  19  19  21 159.432 6.08959   1
  18  20  20 214.620 12.6257  -2
  19  19  21 214.620 12.6257   1
   8   8  32 190.145 13.7075  -2
  19  19  21 190.145 13.7075   1
   6   6  28 258.855 20.2325  -2
   1  21  21 258.855 20.2325   1
   8   8  28 121.845 14.3623  -2
   1  21  21 121.845 14.3623   1
   0  20  22 132.788 14.6720  -2
   1  21  21 132.788 14.6720   1
   1  19  23 49.8889 3.39545  -2
   3  21  21 49.8889 3.39545   1
   5   5  29 198.930 11.4502  -2
   3  21  21 198.930 11.4502   1
   9   9  27 11.2215 5.76153  -2
   3  21  21 11.2215 5.76153   1
   4   4  30 143.389 15.5309  -2
   5  21  21 143.389 15.5309   1
  10  10  26 144.602 13.0988  -2
   5  21  21 144.602 13.0988   1
   2  18  24 11.9190 10.7724  -2
   5  21  21 11.9190 10.7724   1
   2  16  26 7.42348 9.89996  -2
   7  21  21 7.42348 9.89996   1
  12  12  26 262.325 15.5231  -2
   7  21  21 262.325 15.5231   1
   2   2  30 22.9156 17.3179  -2
   7  21  21 22.9156 17.3179   1
   3  15  27 7.84948 3.43473  -2
   9  21  21 7.84948 3.43473   1
  13  13  25 306.131 11.8014  -2
   9  21  21 306.131 11.8014   1
   1   1  31 14.1358 6.39712  -2
   9  21  21 14.1358 6.39712   1
  14  14  24 233.015 11.2970  -2
  11  21  21 233.015 11.2970   1
   4  14  28 51.7563 9.19023  -2
  11  21  21 51.7563 9.19023   1
   0   0  32 57.3970 14.3336  -2
  11  21  21 57.3970 14.3336   1
  16  16  24 15.6642 8.45385  -2
  13  21  21 15.6642 8.45385   1
   4  12  30 43.3958 8.05084  -2
  13  21  21 43.3958 8.05084   1
   2   2  32 15.9586 8.34842  -2
  13  21  21 15.9586 8.34842   1
  17  17  23 24.9862 4.82291  -2
  15  21  21 24.9862 4.82291   1
   5  11  31 47.6045 4.03487  -2
  15  21  21 47.6045 4.03487   1
   3   3  33 3.75486 4.81873  -2
  15  21  21 3.75486 4.81873   1
  18  18  22 63.6656 9.98624  -2
  17  21  21 63.6656 9.98624   1
   6  10  32 48.4221 7.13933  -2
  17  21  21 48.4221 7.13933   1
   4   4  34 15.1991 10.2038  -2
  17  21  21 15.1991 10.2038   1
   6   8  34 39.3154 7.39360  -2
  19  21  21 39.3154 7.39360   1
  20  20  22 9.83719 9.54713  -2
  19  21  21 9.83719 9.54713   1
   6   6  34 26.4397 10.4656  -2
  19  21  21 26.4397 10.4656   1
   7   7  35 28.2089 5.28286  -2
  21  21  21 28.2089 5.28286   1
  21  21  21 65.5227 22.4174  -2
  21  21  21 65.5227 22.4174   1
   7  15  15 1229.30 46.3485  -2
   0   0  22 1229.30 46.3485   1
   9  13  15 668.519 28.0905  -2
   0   2  22 668.519 28.0905   1
   6  14  16 689.949 12.6533  -2
   0   2  22 689.949 12.6533   1
   7  13  17 430.864 15.8005  -2
   2   2  22 430.864 15.8005   1
   5  15  15 365.734 17.7580  -2
   2   2  22 365.734 17.7580   1
  10  14  14 450.000 12.6055  -2
   2   2  22 450.000 12.6055   1
  10  12  16 116.200 3.39090  -2
   0   4  22 116.200 3.39090   1
   5  13  17 168.418 10.4348  -2
   0   4  22 168.418 10.4348   1
   6  12  18 121.330 4.24549  -2
   2   4  22 121.330 4.24549   1
   3  15  17 62.7871 4.93066  -2
   2   4  22 62.7871 4.93066   1
   9  11  17 40.9437 9.47669  -2
   2   4  22 40.9437 9.47669   1
  11  13  15 135.319 25.7104  -2
   2   4  22 135.319 25.7104   1
   2  16  16 8.35402 2.89274  -2
   4   4  22 8.35402 2.89274   1
   7  11  19 40.6962 7.43235  -2
   4   4  22 40.6962 7.43235   1
  13  13  13 242.713 30.0170  -2
   4   4  22 242.713 30.0170   1
  11  11  17 73.5811 12.3154  -2
   0   6  22 73.5811 12.3154   1
   3  13  19 69.8087 9.88264  -2
   0   6  22 69.8087 9.88264   1
   2  14  18 19.7673 2.66023  -2
   2   6  22 19.7673 2.66023   1
  10  10  18 23.8820 2.73562  -2
   2   6  22 23.8820 2.73562   1
   5  11  19 70.5282 8.25532  -2
   2   6  22 70.5282 8.25532   1
  11  13  15 105.284 6.43024  -2
   2   6  22 105.284 6.43024   1
  12  14  14 118.069 3.92914  -2
   4   6  22 118.069 3.92914   1
   6  10  20 61.4813 3.11945  -2
   4   6  22 61.4813 3.11945   1
   9   9  19 32.8401 8.77352  -2
   4   6  22 32.8401 8.77352   1
   1  15  17 52.6928 5.07296  -2
   4   6  22 52.6928 5.07296   1
   1  17  17 9.02211 5.67281  -2
   6   6  22 9.02211 5.67281   1
   7   9  21 26.8819 10.1533  -2
   6   6  22 26.8819 10.1533   1
  13  13  15 109.611 16.1712  -2
   6   6  22 109.611 16.1712   1
   2  12  20 96.1508 4.51972  -2
   0   8  22 96.1508 4.51972   1
   9  13  17 89.2073 12.8733  -2
   0   8  22 89.2073 12.8733   1
  10  14  16 30.6133 3.19225  -2
   2   8  22 30.6133 3.19225   1
   1  13  19 44.8007 4.72984  -2
   2   8  22 44.8007 4.72984   1
   9  11  19 38.8783 9.34272  -2
   2   8  22 38.8783 9.34272   1
   3  11  21 16.2327 12.0353  -2
   2   8  22 16.2327 12.0353   1
   8  10  20 1.58135 2.49438  -2
   4   8  22 1.58135 2.49438   1
   5   9  21 39.3166 6.95761  -2
   4   8  22 39.3166 6.95761   1
   1  15  19 0.18297 4.90162  -2
   4   8  22 0.18297 4.90162   1
  11  15  15 48.4311 14.4625  -2
   4   8  22 48.4311 14.4625   1
  11  13  17 51.3975 10.2359  -2
   6   8  22 51.3975 10.2359   1
   6   8  22 49.8833 4.18748  -2
   6   8  22 49.8833 4.18748   1
   7   9  21 49.9718 11.4180  -2
   6   8  22 49.9718 11.4180   1
   2  16  18 67.7851 2.90058  -2
   6   8  22 67.7851 2.90058   1
  12  12  18 71.0632 5.07169  -2
   8   8  22 71.0632 5.07169   1
   7   7  23 49.3032 13.4387  -2
   8   8  22 49.3032 13.4387   1
   3  17  17 173.762 7.60682  -2
   8   8  22 173.762 7.60682   1
   8  14  18 198.344 6.65934  -2
   0  10  22 198.344 6.65934   1
   1  11  21 206.554 11.9516  -2
   0  10  22 206.554 11.9516   1
   1  13  21 150.724 7.59415  -2
   2  10  22 150.724 7.59415   1
   2  10  22 117.829 5.35298  -2
   2  10  22 117.829 5.35298   1
   9  15  17 115.435 13.0366  -2
   2  10  22 115.435 13.0366   1
   7  13  19 101.109 13.5466  -2
   2  10  22 101.109 13.5466   1
   2  14  20 4.73527 2.45603  -2
   4  10  22 4.73527 2.45603   1
   3   9  23 31.8673 8.18472  -2
   4  10  22 31.8673 8.18472   1
   7  11  21 8.62493 13.8952  -2
   4  10  22 8.62493 13.8952   1
   9  15  17 11.8726 14.9417  -2
   4  10  22 11.8726 14.9417   1
   3  15  19 75.6722 5.87707  -2
   6  10  22 75.6722 5.87707   1
  10  14  18 -0.3412 2.17455  -2
   6  10  22 -0.3412 2.17455   1
   5   7  23 11.2982 11.7304  -2
   6  10  22 11.2982 11.7304   1
   6  10  22 3.58818 2.44171  -2
   6  10  22 3.58818 2.44171   1
   5   9  23 18.0248 10.6330  -2
   8  10  22 18.0248 10.6330   1
   6   6  24 47.8738 3.34758  -2
   8  10  22 47.8738 3.34758   1
  11  13  19 35.7850 7.35528  -2
   8  10  22 35.7850 7.35528   1
   5  17  19 430.160 10.6799  -2
   8  10  22 430.160 10.6799   1
   6  18  18 726.557 19.3624  -2
  10  10  22 726.557 19.3624   1
  11  11  21 324.661 19.1490  -2
  10  10  22 324.661 19.1490   1
   5   7  25 230.024 14.0313  -2
  10  10  22 230.024 14.0313   1
   1  11  23 653.862 19.3965  -2
   0  12  22 653.862 19.3965   1
   7  15  19 546.465 21.7512  -2
   0  12  22 546.465 21.7512   1
   7  17  17 678.923 29.9344  -2
   2  12  22 678.923 29.9344   1
   1   9  23 342.003 14.0824  -2
   2  12  22 342.003 14.0824   1
   2  12  22 419.009 10.3778  -2
   2  12  22 419.009 10.3778   1
   6  14  20 302.760 8.57110  -2
   2  12  22 302.760 8.57110   1
   5  13  21 132.370 15.5846  -2
   4  12  22 132.370 15.5846   1
   2   8  24 163.660 5.41385  -2
   4  12  22 163.660 5.41385   1
   3  13  21 157.146 8.31405  -2
   4  12  22 157.146 8.31405   1
   8  16  18 358.984 9.28791  -2
   4  12  22 358.984 9.28791   1
   9  15  19 189.058 14.2089  -2
   6  12  22 189.058 14.2089   1
   3   7  25 113.685 8.45574  -2
   6  12  22 113.685 8.45574   1
   5  15  21 141.518 7.36862  -2
   6  12  22 141.518 7.36862   1
   5  11  23 185.710 18.8991  -2
   6  12  22 185.710 18.8991   1
   5   5  25 195.599 16.9371  -2
   8  12  22 195.599 16.9371   1
   6  16  20 401.824 10.3156  -2
   8  12  22 401.824 10.3156   1
   4  10  24 287.770 8.86444  -2
   8  12  22 287.770 8.86444   1
   9  13  21 241.357 10.8784  -2
   8  12  22 241.357 10.8784   1
  10  12  22 555.321 12.2381  -2
  10  12  22 555.321 12.2381   1
   4   6  26 406.511 10.9097  -2
  10  12  22 406.511 10.9097   1
   3   9  25 449.472 20.8659  -2
  10  12  22 449.472 20.8659   1
   7  17  19 765.130 16.2882  -2
  10  12  22 765.130 16.2882   1
   9  19  19 712.961 21.9657  -2
  12  12  22 712.961 21.9657   1
   3   7  27 592.887 25.4593  -2
  12  12  22 592.887 25.4593   1
  11  11  23 861.954 36.3916  -2
  12  12  22 861.954 36.3916   1
   2  10  24 414.583 10.9570  -2
   0  14  22 414.583 10.9570   1
   5  17  19 654.490 35.3461  -2
   0  14  22 654.490 35.3461   1
   1   9  25 243.211 12.2873  -2
   2  14  22 243.211 12.2873   1
   6  18  18 687.565 14.5655  -2
   2  14  22 687.565 14.5655   1
   3  11  23 326.275 12.3358  -2
   2  14  22 326.275 12.3358   1
   5  15  21 140.563 11.8542  -2
   2  14  22 140.563 11.8542   1
   4  14  22 64.5570 5.06334  -2
   4  14  22 64.5570 5.06334   1
   5  13  23 142.061 8.98451  -2
   4  14  22 142.061 8.98451   1
   1   7  25 46.2650 11.8132  -2
   4  14  22 46.2650 11.8132   1
   7  17  19 426.418 25.6251  -2
   4  14  22 426.418 25.6251   1
   2   6  26 41.6204 3.25105  -2
   6  14  22 41.6204 3.25105   1
   7  15  21 50.9528 9.96981  -2
   6  14  22 50.9528 9.96981   1
   6  14  22 49.8183 4.31043  -2
   6  14  22 49.8183 4.31043   1
   3  13  23 226.182 28.4039  -2
   6  14  22 226.182 28.4039   1
   7  15  21 64.5272 6.71884  -2
   8  14  22 64.5272 6.71884   1
   8  14  22 71.9179 4.07053  -2
   8  14  22 71.9179 4.07053   1
   3   5  27 68.7384 7.62509  -2
   8  14  22 68.7384 7.62509   1
   3  11  25 202.744 12.4869  -2
   8  14  22 202.744 12.4869   1
   2  10  26 281.074 9.01302  -2
  10  14  22 281.074 9.01302   1
   9  13  23 324.476 13.8650  -2
  10  14  22 324.476 13.8650   1
   3   5  27 196.226 10.1656  -2
  10  14  22 196.226 10.1656   1
   9  17  21 189.027 7.53062  -2
  10  14  22 189.027 7.53062   1
   1   9  27 368.921 17.6855  -2
  12  14  22 368.921 17.6855   1
   9  11  25 465.650 15.8012  -2
  12  14  22 465.650 15.8012   1
   2   6  28 347.509 7.86223  -2
  12  14  22 347.509 7.86223   1
  10  18  20 369.233 9.21913  -2
  12  14  22 369.233 9.21913   1
  10  10  26 316.327 11.5505  -2
  14  14  22 316.327 11.5505   1
   1   7  29 238.943 9.54859  -2
  14  14  22 238.943 9.54859   1
  11  19  19 246.341 12.4740  -2
  14  14  22 246.341 12.4740   1
   4  18  20 274.096 7.46853  -2
   0  16  22 274.096 7.46853   1
   3   9  25 131.303 11.5818  -2
   0  16  22 131.303 11.5818   1
   3  17  21 52.6721 14.7959  -2
   2  16  22 52.6721 14.7959   1
   2   8  26 34.8723 3.79425  -2
   2  16  22 34.8723 3.79425   1
   5  19  19 361.069 18.5118  -2
   2  16  22 361.069 18.5118   1
   5  11  25 69.4093 6.75535  -2
   2  16  22 69.4093 6.75535   1
   6  12  24 102.484 5.29065  -2
   4  16  22 102.484 5.29065   1
   3  15  23 75.1252 14.5124  -2
   4  16  22 75.1252 14.5124   1
   1   7  27 12.5603 9.69258  -2
   4  16  22 12.5603 9.69258   1
   5  17  21 148.529 17.9976  -2
   4  16  22 148.529 17.9976   1
   1   5  27 42.2843 12.4814  -2
   6  16  22 42.2843 12.4814   1
   7  13  23 139.745 6.86630  -2
   6  16  22 139.745 6.86630   1
   6  16  22 72.7679 3.56078  -2
   6  16  22 72.7679 3.56078   1
   2  14  24 251.579 8.65925  -2
   6  16  22 251.579 8.65925   1
   2   4  28 46.5967 3.31672  -2
   8  16  22 46.5967 3.31672   1
   7  15  23 4.95520 8.87300  -2
   8  16  22 4.95520 8.87300   1
   9  15  23 30.1049 6.49867  -2
   8  16  22 30.1049 6.49867   1
   1  13  25 280.279 20.2210  -2
   8  16  22 280.279 20.2210   1
   3   3  29 48.8225 6.25008  -2
  10  16  22 48.8225 6.25008   1
   1  11  27 79.4166 9.66040  -2
  10  16  22 79.4166 9.66040   1
  10  16  22 1.98339 2.16999  -2
  10  16  22 1.98339 2.16999   1
   7  13  25 71.0300 13.7509  -2
  10  16  22 71.0300 13.7509   1
   0  10  28 72.6998 4.73256  -2
  12  16  22 72.6998 4.73256   1
   1   5  29 103.436 7.41010  -2
  12  16  22 103.436 7.41010   1
  11  17  21 60.8787 6.24160  -2
  12  16  22 60.8787 6.24160   1
   8  12  26 124.373 5.62397  -2
  12  16  22 124.373 5.62397   1
   0   6  30 82.6125 3.62166  -2
  14  16  22 82.6125 3.62166   1
  13  19  21 15.9396 5.96749  -2
  14  16  22 15.9396 5.96749   1
   9  11  27 60.0331 8.50173  -2
  14  16  22 60.0331 8.50173   1
   1   9  29 26.4422 9.05173  -2
  14  16  22 26.4422 9.05173   1
  14  20  20 52.4404 5.86321  -2
  16  16  22 52.4404 5.86321   1
   1   7  31 40.4501 6.57316  -2
  16  16  22 40.4501 6.57316   1
   9   9  29 15.5418 10.7648  -2
  16  16  22 15.5418 10.7648   1
   5   9  27 48.6733 8.69373  -2
   0  18  22 48.6733 8.69373   1
   3  19  21 66.1284 23.0299  -2
   0  18  22 66.1284 23.0299   1
   3  19  21 56.8597 12.0529  -2
   2  18  22 56.8597 12.0529   1
   3   7  27 11.0543 5.34147  -2
   2  18  22 11.0543 5.34147   1
   2  18  22 7.46627 2.78991  -2
   2  18  22 7.46627 2.78991   1
   6  10  26 6.73796 3.92370  -2
   2  18  22 6.73796 3.92370   1
   4  18  22 157.538 5.91022  -2
   4  18  22 157.538 5.91022   1
   7  11  25 121.014 7.10981  -2
   4  18  22 121.014 7.10981   1
   2   6  28 141.649 5.19140  -2
   4  18  22 141.649 5.19140   1
   1  17  23 117.535 16.1708  -2
   4  18  22 117.535 16.1708   1
   1   5  29 263.464 10.7156  -2
   6  18  22 263.464 10.7156   1
   5  17  23 199.748 16.9335  -2
   6  18  22 199.748 16.9335   1
   9  13  25 335.657 11.6233  -2
   6  18  22 335.657 11.6233   1
   1  15  25 321.144 22.4307  -2
   6  18  22 321.144 22.4307   1
  10  14  24 291.881 8.12036  -2
   8  18  22 291.881 8.12036   1
   1   3  29 124.970 10.8632  -2
   8  18  22 124.970 10.8632   1
   0  14  26 233.595 8.31328  -2
   8  18  22 233.595 8.31328   1
   5  15  25 89.3194 12.8841  -2
   8  18  22 89.3194 12.8841   1
   2   2  30 19.6736 2.90590  -2
  10  18  22 19.6736 2.90590   1
   6  14  26 6.90047 2.64379  -2
  10  18  22 6.90047 2.64379   1
  11  15  23 122.918 7.59194  -2
  10  18  22 122.918 7.59194   1
   1  13  27 48.0600 12.6805  -2
  10  18  22 48.0600 12.6805   1
  13  17  23 17.2821 5.37315  -2
  12  18  22 17.2821 5.37315   1
   7  13  27 -14.468 7.33689  -2
  12  18  22 -14.468 7.33689   1
   1  11  29 -1.4877 8.61836  -2
  12  18  22 -1.4877 8.61836   1
   1   3  31 -1.4872 6.40879  -2
  12  18  22 -1.4872 6.40879   1
  14  18  22 3.26871 2.80855  -2
  14  18  22 3.26871 2.80855   1
   7  11  29 20.1042 8.47479  -2
  14  18  22 20.1042 8.47479   1
   2  10  30 8.03915 3.32246  -2
  14  18  22 8.03915 3.32246   1
   1   5  31 50.6710 6.24018  -2
  14  18  22 50.6710 6.24018   1
   2   6  32 78.6272 4.29563  -2
  16  18  22 78.6272 4.29563   1
   8  10  30 96.6346 4.76680  -2
  16  18  22 96.6346 4.76680   1
  15  19  21 78.5045 7.12350  -2
  16  18  22 78.5045 7.12350   1
   3   9  31 82.0891 7.72634  -2
  16  18  22 82.0891 7.72634   1
  17  21  21 108.096 10.7226  -2
  18  18  22 108.096 10.7226   1
   9   9  31 121.437 12.1521  -2
  18  18  22 121.437 12.1521   1
   3   7  33 94.9341 7.77170  -2
  18  18  22 94.9341 7.77170   1
   6   8  28 191.097 8.04185  -2
   0  20  22 191.097 8.04185   1
   1  21  21 172.930 26.9533  -2
   0  20  22 172.930 26.9533   1
   5   7  29 230.894 11.4513  -2
   2  20  22 230.894 11.4513   1
   2  20  22 52.3077 5.15238  -2
   2  20  22 52.3077 5.15238   1
   1  19  23 55.4069 11.2678  -2
   2  20  22 55.4069 11.2678   1
   7   9  27 62.3632 8.66334  -2
   2  20  22 62.3632 8.66334   1
   0  18  24 44.7763 3.92092  -2
   4  20  22 44.7763 3.92092   1
   3   5  29 138.793 11.1964  -2
   4  20  22 138.793 11.1964   1
   9  11  27 44.7127 8.05641  -2
   4  20  22 44.7127 8.05641   1
   3  19  23 -1.9469 13.3133  -2
   4  20  22 -1.9469 13.3133   1
   2   4  30 73.7690 5.78927  -2
   6  20  22 73.7690 5.78927   1
   3  17  25 3.25231 8.97017  -2
   6  20  22 3.25231 8.97017   1
  10  12  26 194.322 8.08206  -2
   6  20  22 194.322 8.08206   1
   1  17  25 33.1047 8.97300  -2
   6  20  22 33.1047 8.97300   1
   4  16  26 1.96305 2.70427  -2
   8  20  22 1.96305 2.70427   1
  11  13  25 315.800 11.5739  -2
   8  20  22 315.800 11.5739   1
   1  15  27 5.86157 9.03194  -2
   8  20  22 5.86157 9.03194   1
   1   3  31 0.62436 12.9173  -2
   8  20  22 0.62436 12.9173   1
  13  15  25 144.341 7.76443  -2
  10  20  22 144.341 7.76443   1
   2  14  28 9.29188 3.73849  -2
  10  20  22 9.29188 3.73849   1
   1   1  31 7.02364 8.29930  -2
  10  20  22 7.02364 8.29930   1
   5  15  27 32.3962 11.9789  -2
  10  20  22 32.3962 11.9789   1
   5  13  29 62.5262 9.19612  -2
  12  20  22 62.5262 9.19612   1
   3  13  29 40.9015 9.54070  -2
  12  20  22 40.9015 9.54070   1
   0   2  32 37.9555 2.72332  -2
  12  20  22 37.9555 2.72332   1
  14  16  24 90.7434 4.67077  -2
  12  20  22 90.7434 4.67077   1
   1   3  33 5.63487 5.82032  -2
  14  20  22 5.63487 5.82032   1
  15  17  23 8.85001 5.98387  -2
  14  20  22 8.85001 5.98387   1
   6  12  30 60.9851 3.89989  -2
  14  20  22 60.9851 3.89989   1
   3  11  31 8.83786 7.97539  -2
  14  20  22 8.83786 7.97539   1
   7  11  31 33.6922 7.10153  -2
  16  20  22 33.6922 7.10153   1
  17  19  23 8.15764 6.32251  -2
  16  20  22 8.15764 6.32251   1
   4  10  32 29.1885 3.61671  -2
  16  20  22 29.1885 3.61671   1
   3   5  33 12.8878 6.70472  -2
  16  20  22 12.8878 6.70472   1
   5   9  33 26.4670 7.60155  -2
  18  20  22 26.4670 7.60155   1
   4   6  34 16.8021 3.47949  -2
  18  20  22 16.8021 3.47949   1
   7   9  33 34.1217 7.41971  -2
  18  20  22 34.1217 7.41971   1
  18  20  22 35.6924 4.04192  -2
  18  20  22 35.6924 4.04192   1
   5   7  35 -3.3163 7.54754  -2
  20  20  22 -3.3163 7.54754   1
   8   8  34 -5.7449 4.19494  -2
  20  20  22 -5.7449 4.19494   1
  19  21  21 23.5166 9.97408  -2
  20  20  22 23.5166 9.97408   1
   7   7  29 412.892 21.9104  -2
   0  22  22 412.892 21.9104   1
   0  22  22 361.520 16.1322  -2
   0  22  22 361.520 16.1322   1
   6   6  30 408.262 17.1583  -2
   2  22  22 408.262 17.1583   1
   9   9  29 196.170 14.0174  -2
   2  22  22 196.170 14.0174   1
   1  21  23 289.675 18.1843  -2
   2  22  22 289.675 18.1843   1
   5   5  31 250.150 16.9344  -2
   4  22  22 250.150 16.9344   1
   1  19  25 97.3343 11.4395  -2
   4  22  22 97.3343 11.4395   1
  10  10  28 91.1559 8.88403  -2
   4  22  22 91.1559 8.88403   1
   2  18  26 22.5290 3.34262  -2
   6  22  22 22.5290 3.34262   1
  11  11  27 131.275 12.8552  -2
   6  22  22 131.275 12.8552   1
   3   3  31 45.0433 13.8653  -2
   6  22  22 45.0433 13.8653   1
  13  13  27 88.8866 12.0521  -2
   8  22  22 88.8866 12.0521   1
   2   2  32 32.2242 9.32808  -2
   8  22  22 32.2242 9.32808   1
   3  17  27 37.3045 9.05811  -2
   8  22  22 37.3045 9.05811   1
   3  15  29 146.820 9.66197  -2
  10  22  22 146.820 9.66197   1
   1   1  33 122.781 12.2896  -2
  10  22  22 122.781 12.2896   1
  14  14  26 160.028 10.6064  -2
  10  22  22 160.028 10.6064   1
   4  14  30 205.893 7.55431  -2
  12  22  22 205.893 7.55431   1
  15  15  25 214.648 11.3486  -2
  12  22  22 214.648 11.3486   1
   1   1  33 185.424 14.7678  -2
  12  22  22 185.424 14.7678   1
   2   2  34 143.298 7.85740  -2
  14  22  22 143.298 7.85740   1
   5  13  31 130.301 9.83907  -2
  14  22  22 130.301 9.83907   1
  17  17  25 114.835 10.4943  -2
  14  22  22 114.835 10.4943   1
   3   3  35 50.5440 9.45620  -2
  16  22  22 50.5440 9.45620   1
   5  11  33 13.0350 6.63346  -2
  16  22  22 13.0350 6.63346   1
  18  18  24 27.8035 5.17510  -2
  16  22  22 27.8035 5.17510   1
   6  10  34 5.03493 3.32331  -2
  18  22  22 5.03493 3.32331   1
   5   5  35 -18.813 9.84166  -2
  18  22  22 -18.813 9.84166   1
  19  19  23 20.6102 9.91881  -2
  18  22  22 20.6102 9.91881   1
   7   9  35 35.8513 7.79848  -2
  20  22  22 35.8513 7.79848   1
   6   6  36 25.7624 5.58558  -2
  20  22  22 25.7624 5.58558   1
  21  21  23 55.5515 10.8172  -2
  20  22  22 55.5515 10.8172   1
  22  22  22 163.947 17.6221  -2
  22  22  22 163.947 17.6221   1
   7   7  37 110.237 13.3051  -2
  22  22  22 110.237 13.3051   1
   9  15  15 1119.18 27.0231  -2
   1   1  23 1119.18 27.0231   1
   6  16  16 1313.80 34.4143  -2
   1   1  23 1313.80 34.4143   1
   8  14  16 1082.93 33.1270  -2
   1   1  23 1082.93 33.1270   1
   9  13  17 482.565 9.89030  -2
   1   3  23 482.565 9.89030   1
   6  14  18 602.013 16.2189  -2
   1   3  23 602.013 16.2189   1
   5  15  17 659.458 12.8251  -2
   1   3  23 659.458 12.8251   1
  10  14  16 478.886 29.5593  -2
   1   3  23 478.886 29.5593   1
   8  12  18 231.004 11.9687  -2
   3   3  23 231.004 11.9687   1
   4  16  16 306.038 13.5053  -2
   3   3  23 306.038 13.5053   1
  12  14  14 277.751 34.8579  -2
   3   3  23 277.751 34.8579   1
   5  13  19 270.935 6.82836  -2
   1   5  23 270.935 6.82836   1
  12  12  16 253.337 21.2470  -2
   1   5  23 253.337 21.2470   1
   4  14  18 273.237 9.94181  -2
   1   5  23 273.237 9.94181   1
  10  12  18 251.457 11.6444  -2
   1   5  23 251.457 11.6444   1
   9  11  19 93.5365 4.21282  -2
   3   5  23 93.5365 4.21282   1
  13  13  15 160.110 4.36190  -2
   3   5  23 160.110 4.36190   1
   2  16  18 118.757 5.92112  -2
   3   5  23 118.757 5.92112   1
   6  12  20 78.1052 13.6356  -2
   3   5  23 78.1052 13.6356   1
  14  14  14 75.1034 24.6211  -2
   5   5  23 75.1034 24.6211   1
   1  17  17 26.5988 3.35621  -2
   5   5  23 26.5988 3.35621   1
   8  10  20 23.2887 7.12739  -2
   5   5  23 23.2887 7.12739   1
  11  13  17 97.5488 4.70613  -2
   1   7  23 97.5488 4.70613   1
   2  14  20 67.3990 6.59979  -2
   1   7  23 67.3990 6.59979   1
   4  12  20 83.1422 7.31466  -2
   1   7  23 83.1422 7.31466   1
  10  12  18 75.9622 13.5136  -2
   1   7  23 75.9622 13.5136   1
  12  14  16 36.2769 14.8831  -2
   3   7  23 36.2769 14.8831   1
   1  15  19 4.42641 2.61133  -2
   3   7  23 4.42641 2.61133   1
  10  10  20 65.1619 8.97080  -2
   3   7  23 65.1619 8.97080   1
   5  11  21 4.97592 2.74907  -2
   3   7  23 4.97592 2.74907   1
   6  10  22 12.4770 10.2739  -2
   5   7  23 12.4770 10.2739   1
   0  16  18 17.9252 5.16249  -2
   5   7  23 17.9252 5.16249   1
   9   9  21 9.73135 2.32298  -2
   5   7  23 9.73135 2.32298   1
  12  14  16 41.5458 12.0840  -2
   5   7  23 41.5458 12.0840   1
  13  13  17 86.5758 5.50914  -2
   7   7  23 86.5758 5.50914   1
   2  18  18 172.335 7.82219  -2
   7   7  23 172.335 7.82219   1
   8   8  22 65.2981 16.1554  -2
   7   7  23 65.2981 16.1554   1
   1  13  21 197.634 6.99587  -2
   1   9  23 197.634 6.99587   1
   2  12  22 245.891 9.53899  -2
   1   9  23 245.891 9.53899   1
  10  14  18 106.582 16.2976  -2
   1   9  23 106.582 16.2976   1
   9  13  19 107.229 4.76832  -2
   1   9  23 107.229 4.76832   1
   0  14  20 32.7293 7.79992  -2
   3   9  23 32.7293 7.79992   1
   8  12  20 26.4634 12.1607  -2
   3   9  23 26.4634 12.1607   1
  10  16  16 61.9896 18.1686  -2
   3   9  23 61.9896 18.1686   1
   4  10  22 22.3763 8.02069  -2
   3   9  23 22.3763 8.02069   1
   5   9  23 -0.1393 2.16367  -2
   5   9  23 -0.1393 2.16367   1
  11  15  17 -2.4099 2.07591  -2
   5   9  23 -2.4099 2.07591   1
   2  16  20 23.5563 5.68324  -2
   5   9  23 23.5563 5.68324   1
   8  10  22 19.5294 8.67907  -2
   5   9  23 19.5294 8.67907   1
   7   9  23 8.78988 3.12208  -2
   7   9  23 8.78988 3.12208   1
  12  14  18 16.4534 7.40864  -2
   7   9  23 16.4534 7.40864   1
   6   8  24 39.3687 11.6597  -2
   7   9  23 39.3687 11.6597   1
   3  17  19 194.824 5.74833  -2
   7   9  23 194.824 5.74833   1
  12  12  20 85.9419 10.9703  -2
   9   9  23 85.9419 10.9703   1
   4  18  18 372.966 13.8505  -2
   9   9  23 372.966 13.8505   1
   6   8  24 30.8261 13.0814  -2
   9   9  23 30.8261 13.0814   1
   8  14  20 469.044 23.7526  -2
   1  11  23 469.044 23.7526   1
   1  11  23 714.880 16.3707  -2
   1  11  23 714.880 16.3707   1
   0  12  22 668.284 18.5141  -2
   1  11  23 668.284 18.5141   1
   8  16  18 686.453 30.6480  -2
   1  11  23 686.453 30.6480   1
   2  10  24 517.058 17.7067  -2
   3  11  23 517.058 17.7067   1
   2  14  22 369.234 11.3441  -2
   3  11  23 369.234 11.3441   1
   7  13  21 328.552 9.04970  -2
   3  11  23 328.552 9.04970   1
   9  17  17 462.645 10.6260  -2
   3  11  23 462.645 10.6260   1
   6  12  22 198.928 18.9151  -2
   5  11  23 198.928 18.9151   1
   3  15  21 172.393 5.81355  -2
   5  11  23 172.393 5.81355   1
   4   8  24 186.808 10.7674  -2
   5  11  23 186.808 10.7674   1
  10  16  18 222.759 18.9410  -2
   5  11  23 222.759 18.9410   1
   5   7  25 151.909 5.32563  -2
   7  11  23 151.909 5.32563   1
  10  14  20 122.762 11.0228  -2
   7  11  23 122.762 11.0228   1
   4  16  20 273.370 9.18035  -2
   7  11  23 273.370 9.18035   1
   6  10  24 130.543 12.0457  -2
   7  11  23 130.543 12.0457   1
   6   6  26 370.555 19.4717  -2
   9  11  23 370.555 19.4717   1
   5   9  25 269.545 8.60233  -2
   9  11  23 269.545 8.60233   1
  11  13  21 377.220 9.20061  -2
   9  11  23 377.220 9.20061   1
   6  18  20 587.551 13.4141  -2
   9  11  23 587.551 13.4141   1
  12  12  22 954.464 39.5447  -2
  11  11  23 954.464 39.5447   1
   4   8  26 679.947 31.8655  -2
  11  11  23 679.947 31.8655   1
   7  19  19 951.231 24.1052  -2
  11  11  23 951.231 24.1052   1
   2  12  24 759.596 19.4592  -2
   1  13  23 759.596 19.4592   1
   7  17  19 837.149 17.0824  -2
   1  13  23 837.149 17.0824   1
   0  10  24 652.706 21.8159  -2
   1  13  23 652.706 21.8159   1
   6  16  20 718.494 39.2963  -2
   1  13  23 718.494 39.2963   1
   6  14  22 325.451 16.4305  -2
   3  13  23 325.451 16.4305   1
   8  18  18 628.664 27.2915  -2
   3  13  23 628.664 27.2915   1
   1   9  25 455.737 11.7196  -2
   3  13  23 455.737 11.7196   1
   3  13  23 468.828 11.4304  -2
   3  13  23 468.828 11.4304   1
   4  14  22 230.173 9.43339  -2
   5  13  23 230.173 9.43339   1
   5  13  23 288.107 9.01056  -2
   5  13  23 288.107 9.01056   1
   2   8  26 224.250 9.39901  -2
   5  13  23 224.250 9.39901   1
   8  16  20 292.908 15.5988  -2
   5  13  23 292.908 15.5988   1
   4   6  26 199.531 15.6766  -2
   7  13  23 199.531 15.6766   1
   9  15  21 155.487 5.38788  -2
   7  13  23 155.487 5.38788   1
   6  16  22 185.432 8.19713  -2
   7  13  23 185.432 8.19713   1
   4  12  24 335.641 20.2505  -2
   7  13  23 335.641 20.2505   1
   4  10  26 318.901 16.1537  -2
   9  13  23 318.901 16.1537   1
   7  17  21 417.668 10.7802  -2
   9  13  23 417.668 10.7802   1
   5   5  27 410.105 10.7542  -2
   9  13  23 410.105 10.7542   1
  10  14  22 363.842 12.8862  -2
   9  13  23 363.842 12.8862   1
   3   9  27 596.873 14.6930  -2
  11  13  23 596.873 14.6930   1
  10  12  24 949.799 27.8987  -2
  11  13  23 949.799 27.8987   1
   4   6  28 795.796 28.0294  -2
  11  13  23 795.796 28.0294   1
   8  18  20 800.119 17.1133  -2
  11  13  23 800.119 17.1133   1
  10  20  20 681.866 21.8363  -2
  13  13  23 681.866 21.8363   1
   2   8  28 616.950 24.2970  -2
  13  13  23 616.950 24.2970   1
  11  11  25 917.605 26.4356  -2
  13  13  23 917.605 26.4356   1
   5  17  21 349.384 10.3457  -2
   1  15  23 349.384 10.3457   1
   3  11  25 407.136 10.5606  -2
   1  15  23 407.136 10.5606   1
   6  18  20 516.393 29.0453  -2
   1  15  23 516.393 29.0453   1
   2  10  26 369.873 12.6217  -2
   1  15  23 369.873 12.6217   1
   4  16  22 97.9680 16.5139  -2
   3  15  23 97.9680 16.5139   1
   4  12  24 276.279 10.5672  -2
   3  15  23 276.279 10.5672   1
   0   8  26 142.905 9.92570  -2
   3  15  23 142.905 9.92570   1
   6  18  20 392.579 28.4206  -2
   3  15  23 392.579 28.4206   1
   1   7  27 18.6296 2.91412  -2
   5  15  23 18.6296 2.91412   1
   6  14  24 35.1074 7.29817  -2
   5  15  23 35.1074 7.29817   1
   7  17  21 133.590 6.32377  -2
   5  15  23 133.590 6.32377   1
   4  14  24 129.757 15.5932  -2
   5  15  23 129.757 15.5932   1
   3  13  25 166.559 7.12409  -2
   7  15  23 166.559 7.12409   1
   2   6  28 27.7744 7.80029  -2
   7  15  23 27.7744 7.80029   1
   7  15  23 -2.8255 3.36812  -2
   7  15  23 -2.8255 3.36812   1
   8  16  22 22.3493 9.27879  -2
   7  15  23 22.3493 9.27879   1
   8  14  24 92.3088 11.3025  -2
   9  15  23 92.3088 11.3025   1
   4   4  28 163.505 8.72359  -2
   9  15  23 163.505 8.72359   1
   8  16  22 49.0033 6.86129  -2
   9  15  23 49.0033 6.86129   1
   2  12  26 207.779 12.5353  -2
   9  15  23 207.779 12.5353   1
  10  18  22 221.011 8.05129  -2
  11  15  23 221.011 8.05129   1
   3   5  29 329.637 7.55248  -2
  11  15  23 329.637 7.55248   1
   9  13  25 374.763 10.5685  -2
  11  15  23 374.763 10.5685   1
   2  10  28 233.125 12.9677  -2
  11  15  23 233.125 12.9677   1
  11  19  21 275.724 7.71220  -2
  13  15  23 275.724 7.71220   1
   2   6  30 352.655 12.8857  -2
  13  15  23 352.655 12.8857   1
  10  12  26 448.667 16.8573  -2
  13  15  23 448.667 16.8573   1
   1   9  29 250.746 7.96776  -2
  13  15  23 250.746 7.96776   1
   0   8  30 89.4897 8.67560  -2
  15  15  23 89.4897 8.67560   1
  12  20  20 85.9494 9.54535  -2
  15  15  23 85.9494 9.54535   1
  10  10  28 62.1859 13.8420  -2
  15  15  23 62.1859 13.8420   1
   3   9  27 22.6838 3.62332  -2
   1  17  23 22.6838 3.62332   1
   4  10  26 48.6354 6.38458  -2
   1  17  23 48.6354 6.38458   1
   4  20  20 151.876 10.9755  -2
   1  17  23 151.876 10.9755   1
   4  18  22 90.8190 12.5552  -2
   1  17  23 90.8190 12.5552   1
   3  17  23 -0.6285 3.28934  -2
   3  17  23 -0.6285 3.28934   1
   5  19  21 147.148 5.69970  -2
   3  17  23 147.148 5.69970   1
   2   8  28 -8.3610 10.0975  -2
   3  17  23 -8.3610 10.0975   1
   6  12  26 4.86451 5.98521  -2
   3  17  23 4.86451 5.98521   1
   7  13  25 95.0744 5.29802  -2
   5  17  23 95.0744 5.29802   1
   6  18  22 138.768 10.8446  -2
   5  17  23 138.768 10.8446   1
   0   6  28 60.1856 9.49352  -2
   5  17  23 60.1856 9.49352   1
   2  16  24 44.5275 26.6123  -2
   5  17  23 44.5275 26.6123   1
   1   5  29 124.586 4.87966  -2
   7  17  23 124.586 4.87966   1
   8  14  24 127.750 6.94215  -2
   7  17  23 127.750 6.94215   1
   6  16  24 72.7794 12.5649  -2
   7  17  23 72.7794 12.5649   1
   2  14  26 144.417 12.5653  -2
   7  17  23 144.417 12.5653   1
  10  16  24 24.9723 6.43398  -2
   9  17  23 24.9723 6.43398   1
   7  15  25 2.59608 2.44564  -2
   9  17  23 2.59608 2.44564   1
   1  13  27 83.9869 5.28568  -2
   9  17  23 83.9869 5.28568   1
   2   4  30 72.6654 8.70086  -2
   9  17  23 72.6654 8.70086   1
   0  12  28 64.9374 9.80243  -2
  11  17  23 64.9374 9.80243   1
  11  17  23 49.4197 4.58383  -2
  11  17  23 49.4197 4.58383   1
   2   4  30 94.6333 6.82307  -2
  11  17  23 94.6333 6.82307   1
   8  14  26 31.1188 8.71776  -2
  11  17  23 31.1188 8.71776   1
  12  18  22 33.0245 5.77730  -2
  13  17  23 33.0245 5.77730   1
   1   5  31 90.4356 3.63069  -2
  13  17  23 90.4356 3.63069   1
   8  12  28 34.8392 8.26110  -2
  13  17  23 34.8392 8.26110   1
   0  10  30 44.1217 8.45520  -2
  13  17  23 44.1217 8.45520   1
   0   6  32 7.69556 7.07361  -2
  15  17  23 7.69556 7.07361   1
   9  11  29 -5.5577 2.92133  -2
  15  17  23 -5.5577 2.92133   1
  14  20  22 -0.5913 6.40148  -2
  15  17  23 -0.5913 6.40148   1
   1   9  31 -6.6012 3.25885  -2
  15  17  23 -6.6012 3.25885   1
  15  21  21 12.4687 5.12544  -2
  17  17  23 12.4687 5.12544   1
   2   8  32 23.2447 6.84913  -2
  17  17  23 23.2447 6.84913   1
  10  10  30 24.1393 12.8489  -2
  17  17  23 24.1393 12.8489   1
   4   8  28 152.180 10.4587  -2
   1  19  23 152.180 10.4587   1
   3  21  21 81.6770 4.44470  -2
   1  19  23 81.6770 4.44470   1
   2  20  22 112.349 13.1708  -2
   1  19  23 112.349 13.1708   1
   6  10  28 102.516 8.94865  -2
   1  19  23 102.516 8.94865   1
   3   7  29 114.104 6.39608  -2
   3  19  23 114.104 6.39608   1
   7  11  27 7.46666 4.11049  -2
   3  19  23 7.46666 4.11049   1
   2  18  24 16.9029 7.96920  -2
   3  19  23 16.9029 7.96920   1
   4  20  22 -5.6272 15.7147  -2
   3  19  23 -5.6272 15.7147   1
   4  18  24 -8.0513 12.0837  -2
   5  19  23 -8.0513 12.0837   1
   8  12  26 59.3394 8.07706  -2
   5  19  23 59.3394 8.07706   1
   2   6  30 116.420 10.0439  -2
   5  19  23 116.420 10.0439   1
   1  17  25 36.7273 4.53084  -2
   5  19  23 36.7273 4.53084   1
   5  17  25 21.0665 2.77571  -2
   7  19  23 21.0665 2.77571   1
   0   4  30 50.0517 7.73446  -2
   7  19  23 50.0517 7.73446   1
  10  14  26 115.258 8.83797  -2
   7  19  23 115.258 8.83797   1
   0  16  26 40.7027 13.9418  -2
   7  19  23 40.7027 13.9418   1
  11  15  25 125.820 5.48404  -2
   9  19  23 125.820 5.48404   1
   6  16  26 10.9431 6.10275  -2
   9  19  23 10.9431 6.10275   1
   1   3  31 9.70363 2.67982  -2
   9  19  23 9.70363 2.67982   1
   0  14  28 -0.0662 9.82614  -2
   9  19  23 -0.0662 9.82614   1
  12  16  24 131.530 7.88135  -2
  11  19  23 131.530 7.88135   1
   6  14  28 85.1320 7.59613  -2
  11  19  23 85.1320 7.59613   1
   1  13  29 29.2639 4.25243  -2
  11  19  23 29.2639 4.25243   1
   2   2  32 33.0199 7.27570  -2
  11  19  23 33.0199 7.27570   1
  14  18  24 50.3610 5.97128  -2
  13  19  23 50.3610 5.97128   1
   7  13  29 75.7557 4.23562  -2
  13  19  23 75.7557 4.23562   1
   0   4  32 33.9760 7.83855  -2
  13  19  23 33.9760 7.83855   1
   2  12  30 40.5686 9.28862  -2
  13  19  23 40.5686 9.28862   1
  15  19  23 -3.2357 3.00763  -2
  15  19  23 -3.2357 3.00763   1
   2  10  32 -0.9583 8.27708  -2
  15  19  23 -0.9583 8.27708   1
   1   5  33 -0.3226 2.74666  -2
  15  19  23 -0.3226 2.74666   1
   8  12  30 14.5082 7.18500  -2
  15  19  23 14.5082 7.18500   1
  16  20  22 3.83425 6.42206  -2
  17  19  23 3.83425 6.42206   1
   8  10  32 15.1778 7.58149  -2
  17  19  23 15.1778 7.58149   1
   3   9  33 14.5638 3.34697  -2
  17  19  23 14.5638 3.34697   1
   2   6  34 11.4818 6.42552  -2
  17  19  23 11.4818 6.42552   1
   4   8  34 18.4759 7.12787  -2
  19  19  23 18.4759 7.12787   1
  18  22  22 5.21856 9.51462  -2
  19  19  23 5.21856 9.51462   1
   9   9  33 16.3643 4.93170  -2
  19  19  23 16.3643 4.93170   1
   6   8  30 377.123 13.2888  -2
   1  21  23 377.123 13.2888   1
   2  22  22 315.304 15.8563  -2
   1  21  23 315.304 15.8563   1
   7   9  29 267.787 9.43224  -2
   1  21  23 267.787 9.43224   1
   1  21  23 291.263 10.1000  -2
   1  21  23 291.263 10.1000   1
   2  20  24 104.674 12.7360  -2
   3  21  23 104.674 12.7360   1
   4   6  30 259.953 12.9396  -2
   3  21  23 259.953 12.9396   1
   8  10  28 103.058 8.78114  -2
   3  21  23 103.058 8.78114   1
   0  20  24 160.573 13.7818  -2
   3  21  23 160.573 13.7818   1
   3  19  25 26.1052 4.71815  -2
   5  21  23 26.1052 4.71815   1
  10  12  28 58.0659 8.44833  -2
   5  21  23 58.0659 8.44833   1
   3   5  31 114.383 6.54925  -2
   5  21  23 114.383 6.54925   1
   0  18  26 17.5065 6.31767  -2
   5  21  23 17.5065 6.31767   1
   1  17  27 8.75037 3.68650  -2
   7  21  23 8.75037 3.68650   1
   2   4  32 11.2448 9.96515  -2
   7  21  23 11.2448 9.96515   1
  11  13  27 111.073 6.76877  -2
   7  21  23 111.073 6.76877   1
   4  18  26 33.7262 13.5199  -2
   7  21  23 33.7262 13.5199   1
   2  16  28 56.8003 9.90078  -2
   9  21  23 56.8003 9.90078   1
   0   2  32 37.0503 9.13760  -2
   9  21  23 37.0503 9.13760   1
  12  14  26 179.209 9.86631  -2
   9  21  23 179.209 9.86631   1
   4  16  28 104.502 10.6386  -2
   9  21  23 104.502 10.6386   1
   2  14  30 114.068 10.3751  -2
  11  21  23 114.068 10.3751   1
  14  16  26 115.322 7.74734  -2
  11  21  23 115.322 7.74734   1
   5  15  29 216.063 8.18556  -2
  11  21  23 216.063 8.18556   1
   1   1  33 146.357 5.14362  -2
  11  21  23 146.357 5.14362   1
  15  17  25 129.348 5.40678  -2
  13  21  23 129.348 5.40678   1
   6  14  30 217.533 10.2072  -2
  13  21  23 217.533 10.2072   1
   3  13  31 123.001 6.31127  -2
  13  21  23 123.001 6.31127   1
   0   2  34 200.449 8.90258  -2
  13  21  23 200.449 8.90258   1
   4  12  32 7.29032 8.49759  -2
  15  21  23 7.29032 8.49759   1
   6  12  32 54.3988 7.33240  -2
  15  21  23 54.3988 7.33240   1
  16  18  24 29.7449 6.63316  -2
  15  21  23 29.7449 6.63316   1
   2   4  34 48.1485 6.43206  -2
  15  21  23 48.1485 6.43206   1
  18  20  24 8.04841 6.73813  -2
  17  21  23 8.04841 6.73813   1
   3   5  35 7.26452 3.22902  -2
  17  21  23 7.26452 3.22902   1
   4  10  34 14.5363 8.64564  -2
  17  21  23 14.5363 8.64564   1
   7  11  33 1.04799 3.31178  -2
  17  21  23 1.04799 3.31178   1
   4   6  36 8.68908 7.45398  -2
  19  21  23 8.68908 7.45398   1
   8  10  34 7.19368 8.93202  -2
  19  21  23 7.19368 8.93202   1
   5   9  35 9.49721 3.62037  -2
  19  21  23 9.49721 3.62037   1
  19  21  23 2.36586 3.61995  -2
  19  21  23 2.36586 3.61995   1
  20  22  22 65.0789 13.2885  -2
  21  21  23 65.0789 13.2885   1
   6   8  36 27.7186 8.19720  -2
  21  21  23 27.7186 8.19720   1
   8   8  36 55.9385 12.3033  -2
  21  21  23 55.9385 12.3033   1
   8   8  30 405.050 19.2266  -2
   1  23  23 405.050 19.2266   1
   0  22  24 457.849 16.7755  -2
   1  23  23 457.849 16.7755   1
   7   7  31 487.419 19.4917  -2
   1  23  23 487.419 19.4917   1
   6   6  32 332.523 17.6881  -2
   3  23  23 332.523 17.6881   1
   1  21  25 244.413 10.2516  -2
   3  23  23 244.413 10.2516   1
  10  10  30 198.475 14.8328  -2
   3  23  23 198.475 14.8328   1
   2  20  26 84.0908 12.0527  -2
   5  23  23 84.0908 12.0527   1
  11  11  29 78.6392 8.44639  -2
   5  23  23 78.6392 8.44639   1
   4   4  32 125.898 14.6042  -2
   5  23  23 125.898 14.6042   1
   2  18  28 54.0059 10.7925  -2
   7  23  23 54.0059 10.7925   1
  12  12  28 87.5798 12.8349  -2
   7  23  23 87.5798 12.8349   1
   3   3  33 23.1363 7.24704  -2
   7  23  23 23.1363 7.24704   1
   3  17  29 164.973 7.36635  -2
   9  23  23 164.973 7.36635   1
  14  14  28 90.1790 12.8059  -2
   9  23  23 90.1790 12.8059   1
   2   2  34 133.563 12.9868  -2
   9  23  23 133.563 12.9868   1
   0   0  34 345.219 17.4732  -2
  11  23  23 345.219 17.4732   1
  15  15  27 207.898 12.4624  -2
  11  23  23 207.898 12.4624   1
   4  16  30 321.649 13.4223  -2
  11  23  23 321.649 13.4223   1
   4  14  32 267.477 12.0106  -2
  13  23  23 267.477 12.0106   1
  16  16  26 268.387 12.8831  -2
  13  23  23 268.387 12.8831   1
   1   1  35 362.299 12.4325  -2
  13  23  23 362.299 12.4325   1
  18  18  26 154.780 11.3842  -2
  15  23  23 154.780 11.3842   1
   5  13  33 102.607 5.97637  -2
  15  23  23 102.607 5.97637   1
   2   2  36 157.213 14.1063  -2
  15  23  23 157.213 14.1063   1
   6  12  34 28.6446 9.18492  -2
  17  23  23 28.6446 9.18492   1
  19  19  25 26.8978 5.82504  -2
  17  23  23 26.8978 5.82504   1
   4   4  36 48.2894 9.80264  -2
  17  23  23 48.2894 9.80264   1
   6  10  36 28.6490 8.97763  -2
  19  23  23 28.6490 8.97763   1
   5   5  37 30.4549 5.72072  -2
  19  23  23 30.4549 5.72072   1
  20  20  24 28.5785 10.7114  -2
  19  23  23 28.5785 10.7114   1
   8  16  16 1465.83 35.1303  -2
   0   0  24 1465.83 35.1303   1
   7  15  17 1099.55 25.9040  -2
   0   2  24 1099.55 25.9040   1
   9  15  17 982.749 26.1459  -2
   0   2  24 982.749 26.1459   1
   8  14  18 850.201 17.5377  -2
   2   2  24 850.201 17.5377   1
   5  17  17 1230.38 35.8855  -2
   2   2  24 1230.38 35.8855   1
  11  15  15 664.649 55.5430  -2
   2   2  24 664.649 55.5430   1
   5  15  19 621.889 15.5955  -2
   0   4  24 621.889 15.5955   1
  11  13  17 416.160 27.9273  -2
   0   4  24 416.160 27.9273   1
  12  14  16 390.463 7.94491  -2
   2   4  24 390.463 7.94491   1
   7  13  19 402.473 14.9310  -2
   2   4  24 402.473 14.9310   1
   9  13  19 354.232 13.1105  -2
   2   4  24 354.232 13.1105   1
   4  16  18 632.848 13.0917  -2
   2   4  24 632.848 13.0917   1
   8  12  20 190.579 5.81629  -2
   4   4  24 190.579 5.81629   1
   3  17  17 333.789 14.2663  -2
   4   4  24 333.789 14.2663   1
  13  15  15 173.947 9.94958  -2
   4   4  24 173.947 9.94958   1
  12  12  18 141.495 5.36553  -2
   0   6  24 141.495 5.36553   1
   4  14  20 122.440 5.16860  -2
   0   6  24 122.440 5.16860   1
   5  13  21 65.4716 6.39454  -2
   2   6  24 65.4716 6.39454   1
  13  13  17 89.9921 12.0841  -2
   2   6  24 89.9921 12.0841   1
   3  15  19 125.268 11.2731  -2
   2   6  24 125.268 11.2731   1
  11  11  19 150.309 12.5531  -2
   2   6  24 150.309 12.5531   1
   1  17  19 34.9070 3.84463  -2
   4   6  24 34.9070 3.84463   1
   9  11  21 66.9489 8.63713  -2
   4   6  24 66.9489 8.63713   1
   7  11  21 -2.6108 14.9555  -2
   4   6  24 -2.6108 14.9555   1
  13  15  15 9.75258 10.8346  -2
   4   6  24 9.75258 10.8346   1
  14  14  16 64.2074 4.86338  -2
   6   6  24 64.2074 4.86338   1
   0  18  18 81.1762 4.54424  -2
   6   6  24 81.1762 4.54424   1
   8  10  22 58.6277 3.93250  -2
   6   6  24 58.6277 3.93250   1
   3  13  21 95.3727 7.78429  -2
   0   8  24 95.3727 7.78429   1
  11  13  19 126.496 15.7586  -2
   0   8  24 126.496 15.7586   1
   1  15  21 52.1644 7.18780  -2
   2   8  24 52.1644 7.18780   1
   4  12  22 122.451 5.38422  -2
   2   8  24 122.451 5.38422   1
  10  12  20 132.130 5.66505  -2
   2   8  24 132.130 5.66505   1
  11  15  17 36.4413 18.5084  -2
   2   8  24 36.4413 18.5084   1
   9  11  21 62.8837 8.41293  -2
   4   8  24 62.8837 8.41293   1
   0  16  20 0.81824 2.20849  -2
   4   8  24 0.81824 2.20849   1
  12  16  16 5.56919 1.99699  -2
   4   8  24 5.56919 1.99699   1
   5  11  23 95.9907 8.17995  -2
   4   8  24 95.9907 8.17995   1
  13  15  17 60.7314 6.67048  -2
   6   8  24 60.7314 6.67048   1
   1  17  19 89.4015 5.35048  -2
   6   8  24 89.4015 5.35048   1
   9   9  23 71.1049 14.2975  -2
   6   8  24 71.1049 14.2975   1
   7   9  23 71.5809 14.3180  -2
   6   8  24 71.5809 14.3180   1
   3  19  19 190.965 8.05681  -2
   8   8  24 190.965 8.05681   1
   8   8  24 62.4688 3.95810  -2
   8   8  24 62.4688 3.95810   1
  13  13  19 43.8522 10.0329  -2
   8   8  24 43.8522 10.0329   1
   1  13  23 653.590 17.3453  -2
   0  10  24 653.590 17.3453   1
   9  15  19 435.924 23.4218  -2
   0  10  24 435.924 23.4218   1
   3  11  23 525.445 18.0976  -2
   2  10  24 525.445 18.0976   1
  10  16  18 408.725 10.9364  -2
   2  10  24 408.725 10.9364   1
   9  13  21 407.022 23.1713  -2
   2  10  24 407.022 23.1713   1
   0  14  22 464.915 11.1267  -2
   2  10  24 464.915 11.1267   1
   1  15  21 191.311 9.56779  -2
   4  10  24 191.311 9.56779   1
   4  10  24 258.592 7.88531  -2
   4  10  24 258.592 7.88531   1
  11  17  17 203.974 16.3862  -2
   4  10  24 203.974 16.3862   1
   8  12  22 261.457 7.93536  -2
   4  10  24 261.457 7.93536   1
   7  11  23 97.1677 9.59708  -2
   6  10  24 97.1677 9.59708   1
  11  15  19 31.6965 10.0868  -2
   6  10  24 31.6965 10.0868   1
   3  17  21 73.1681 5.91996  -2
   6  10  24 73.1681 5.91996   1
   5   9  25 2.45319 11.4141  -2
   6  10  24 2.45319 11.4141   1
  12  14  20 74.4968 4.56316  -2
   8  10  24 74.4968 4.56316   1
   4  18  20 272.677 7.62129  -2
   8  10  24 272.677 7.62129   1
   7   7  25 123.481 15.7232  -2
   8  10  24 123.481 15.7232   1
   7   9  25 34.3032 11.4649  -2
   8  10  24 34.3032 11.4649   1
   5  19  19 709.369 21.6010  -2
  10  10  24 709.369 21.6010   1
   6   8  26 387.943 10.3706  -2
  10  10  24 387.943 10.3706   1
  13  13  21 464.083 24.2808  -2
  10  10  24 464.083 24.2808   1
   8  16  20 720.906 16.0820  -2
   0  12  24 720.906 16.0820   1
   0  12  24 987.013 21.4206  -2
   0  12  24 987.013 21.4206   1
   1  11  25 807.849 21.6694  -2
   2  12  24 807.849 21.6694   1
   1  13  23 801.860 20.1775  -2
   2  12  24 801.860 20.1775   1
   9  17  19 744.673 31.1933  -2
   2  12  24 744.673 31.1933   1
   7  15  21 596.273 25.2015  -2
   2  12  24 596.273 25.2015   1
   3  15  23 407.845 12.2617  -2
   4  12  24 407.845 12.2617   1
   7  13  23 467.417 21.4660  -2
   4  12  24 467.417 21.4660   1
   9  17  19 512.844 16.5225  -2
   4  12  24 512.844 16.5225   1
   3   9  25 424.713 14.7660  -2
   4  12  24 424.713 14.7660   1
  10  16  20 203.028 7.61031  -2
   6  12  24 203.028 7.61031   1
   4  16  22 177.285 6.61177  -2
   6  12  24 177.285 6.61177   1
   6  12  24 268.559 8.61366  -2
   6  12  24 268.559 8.61366   1
   4   8  26 167.941 5.98455  -2
   6  12  24 167.941 5.98455   1
   5  17  21 376.769 11.2210  -2
   8  12  24 376.769 11.2210   1
   5   7  27 366.534 19.6137  -2
   8  12  24 366.534 19.6137   1
   5  11  25 314.690 16.2532  -2
   8  12  24 314.690 16.2532   1
  11  15  21 240.527 15.0867  -2
   8  12  24 240.527 15.0867   1
   7  19  21 766.408 15.4579  -2
  10  12  24 766.408 15.4579   1
   5   9  27 652.919 24.7594  -2
  10  12  24 652.919 24.7594   1
  11  13  23 959.434 28.3251  -2
  10  12  24 959.434 28.3251   1
   5   7  27 717.217 29.4647  -2
  10  12  24 717.217 29.4647   1
   4   8  28 929.338 20.8231  -2
  12  12  24 929.338 20.8231   1
   8  20  20 950.264 24.0138  -2
  12  12  24 950.264 24.0138   1
  12  12  24 1304.30 39.0926  -2
  12  12  24 1304.30 39.0926   1
   1  11  25 748.877 24.2169  -2
   0  14  24 748.877 24.2169   1
   7  17  21 632.577 24.9460  -2
   0  14  24 632.577 24.9460   1
   0  10  26 520.312 14.1731  -2
   2  14  24 520.312 14.1731   1
   3  13  25 529.742 15.3602  -2
   2  14  24 529.742 15.3602   1
   7  19  19 698.292 30.8633  -2
   2  14  24 698.292 30.8633   1
   6  16  22 385.292 10.3912  -2
   2  14  24 385.292 10.3912   1
   8  18  20 322.599 8.86635  -2
   4  14  24 322.599 8.86635   1
   4  14  24 255.178 8.06148  -2
   4  14  24 255.178 8.06148   1
   1   9  27 216.813 12.0836  -2
   4  14  24 216.813 12.0836   1
   5  15  23 134.132 17.0063  -2
   4  14  24 134.132 17.0063   1
   3   7  27 75.2294 6.20359  -2
   6  14  24 75.2294 6.20359   1
   5  15  23 70.5619 6.80044  -2
   6  14  24 70.5619 6.80044   1
   9  17  21 88.0502 11.2467  -2
   6  14  24 88.0502 11.2467   1
   5  13  25 128.246 9.63568  -2
   6  14  24 128.246 9.63568   1
   7  17  23 154.325 8.02794  -2
   8  14  24 154.325 8.02794   1
   9  15  23 97.9661 11.2877  -2
   8  14  24 97.9661 11.2877   1
   4  12  26 152.317 6.81928  -2
   8  14  24 152.317 6.81928   1
   4   6  28 237.528 7.07377  -2
   8  14  24 237.528 7.07377   1
  10  14  24 531.340 12.0694  -2
  10  14  24 531.340 12.0694   1
   8  18  22 421.123 10.8767  -2
  10  14  24 421.123 10.8767   1
   5   5  29 583.609 23.3297  -2
  10  14  24 583.609 23.3297   1
   3  11  27 378.932 16.4953  -2
  10  14  24 378.932 16.4953   1
   9  19  21 621.899 14.3585  -2
  12  14  24 621.899 14.3585   1
   3   9  29 592.660 23.1911  -2
  12  14  24 592.660 23.1911   1
  11  13  25 865.942 26.2052  -2
  12  14  24 865.942 26.2052   1
   3   7  29 689.706 28.7224  -2
  12  14  24 689.706 28.7224   1
   2   8  30 388.484 10.1802  -2
  14  14  24 388.484 10.1802   1
  11  11  27 498.185 21.1832  -2
  14  14  24 498.185 21.1832   1
  11  21  21 361.419 14.6954  -2
  14  14  24 361.419 14.6954   1
   3  11  27 177.001 9.64886  -2
   0  16  24 177.001 9.64886   1
   5  19  21 314.369 20.6755  -2
   0  16  24 314.369 20.6755   1
   1   9  27 92.1229 9.64221  -2
   2  16  24 92.1229 9.64221   1
   6  20  20 261.794 7.82973  -2
   2  16  24 261.794 7.82973   1
   4  12  26 123.450 5.69853  -2
   2  16  24 123.450 5.69853   1
   5  17  23 95.1659 11.5097  -2
   2  16  24 95.1659 11.5097   1
   0   8  28 4.19372 3.26979  -2
   4  16  24 4.19372 3.26979   1
   4  16  24 2.94468 3.54265  -2
   4  16  24 2.94468 3.54265   1
   7  19  21 130.071 9.70835  -2
   4  16  24 130.071 9.70835   1
   5  13  25 44.9164 6.85334  -2
   4  16  24 44.9164 6.85334   1
   7  15  25 7.37865 7.51213  -2
   6  16  24 7.37865 7.51213   1
   7  17  23 51.0293 8.35193  -2
   6  16  24 51.0293 8.35193   1
   3  15  25 53.8387 10.9332  -2
   6  16  24 53.8387 10.9332   1
   1   7  29 28.7816 7.99862  -2
   6  16  24 28.7816 7.99862   1
   3  13  27 35.9590 9.01015  -2
   8  16  24 35.9590 9.01015   1
   8  16  24 -1.9900 1.80367  -2
   8  16  24 -1.9900 1.80367   1
   3   5  29 137.305 9.09105  -2
   8  16  24 137.305 9.09105   1
   2  12  28 69.0980 5.04666  -2
  10  16  24 69.0980 5.04666   1
   9  17  23 63.9132 7.27984  -2
  10  16  24 63.9132 7.27984   1
   4   4  30 195.831 6.07226  -2
  10  16  24 195.831 6.07226   1
   9  15  25 81.1214 9.82518  -2
  10  16  24 81.1214 9.82518   1
  11  19  23 197.738 7.69553  -2
  12  16  24 197.738 7.69553   1
   1  11  29 161.135 10.5273  -2
  12  16  24 161.135 10.5273   1
   9  13  27 203.518 11.7326  -2
  12  16  24 203.518 11.7326   1
   3   5  31 237.945 11.3779  -2
  12  16  24 237.945 11.3779   1
   1   7  31 139.455 8.36269  -2
  14  16  24 139.455 8.36269   1
  12  20  22 118.942 5.24194  -2
  14  16  24 118.942 5.24194   1
   1   9  31 105.548 8.74660  -2
  14  16  24 105.548 8.74660   1
  10  12  28 115.228 6.25815  -2
  14  16  24 115.228 6.25815   1
  13  21  21 -1.9248 8.44295  -2
  16  16  24 -1.9248 8.44295   1
   0   8  32 2.91917 3.15043  -2
  16  16  24 2.91917 3.15043   1
  11  11  29 8.57710 12.0589  -2
  16  16  24 8.57710 12.0589   1
   4  20  22 87.1790 4.85959  -2
   0  18  24 87.1790 4.85959   1
   4  10  28 109.720 5.12745  -2
   0  18  24 109.720 5.12745   1
   3   9  29 77.6010 8.59963  -2
   2  18  24 77.6010 8.59963   1
   5  11  27 32.7512 6.00917  -2
   2  18  24 32.7512 6.00917   1
   3  19  23 31.1856 12.0003  -2
   2  18  24 31.1856 12.0003   1
   5  21  21 42.7560 13.1880  -2
   2  18  24 42.7560 13.1880   1
   7  13  27 -7.2982 5.53080  -2
   4  18  24 -7.2982 5.53080   1
   3  17  25 -4.0776 8.49109  -2
   4  18  24 -4.0776 8.49109   1
   1   7  29 19.6720 8.94946  -2
   4  18  24 19.6720 8.94946   1
   5  19  23 -2.3841 10.9129  -2
   4  18  24 -2.3841 10.9129   1
   6  18  24 52.8240 4.03120  -2
   6  18  24 52.8240 4.03120   1
   8  14  26 51.2603 4.54573  -2
   6  18  24 51.2603 4.54573   1
   2  16  26 39.5203 4.52644  -2
   6  18  24 39.5203 4.52644   1
   0   6  30 89.8690 4.45636  -2
   6  18  24 89.8690 4.45636   1
   1  15  27 -1.8029 11.4908  -2
   8  18  24 -1.8029 11.4908   1
   1   5  31 53.1878 7.57837  -2
   8  18  24 53.1878 7.57837   1
   9  15  25 38.8847 5.94860  -2
   8  18  24 38.8847 5.94860   1
   7  17  25 20.9099 6.82585  -2
   8  18  24 20.9099 6.82585   1
  11  17  25 38.0849 6.75601  -2
  10  18  24 38.0849 6.75601   1
   7  15  27 22.1524 7.65562  -2
  10  18  24 22.1524 7.65562   1
   3   3  31 34.5008 6.99063  -2
  10  18  24 34.5008 6.99063   1
   1  13  29 12.9009 8.41899  -2
  10  18  24 12.9009 8.41899   1
  12  18  24 123.565 6.08639  -2
  12  18  24 123.565 6.08639   1
   8  14  28 71.0393 4.56649  -2
  12  18  24 71.0393 4.56649   1
   0  12  30 63.5804 4.77900  -2
  12  18  24 63.5804 4.77900   1
   2   4  32 85.9203 4.26968  -2
  12  18  24 85.9203 4.26968   1
   1   5  33 9.19119 7.12431  -2
  14  18  24 9.19119 7.12431   1
  13  19  23 64.6457 6.19651  -2
  14  18  24 64.6457 6.19651   1
   9  13  29 8.83024 8.36834  -2
  14  18  24 8.83024 8.36834   1
   1  11  31 16.6847 8.25779  -2
  14  18  24 16.6847 8.25779   1
   9  11  31 1.49441 8.55943  -2
  16  18  24 1.49441 8.55943   1
   1   9  33 22.1863 7.69606  -2
  16  18  24 22.1863 7.69606   1
  15  21  23 15.4849 6.31281  -2
  16  18  24 15.4849 6.31281   1
   1   7  33 -8.4293 6.08638  -2
  16  18  24 -8.4293 6.08638   1
   2   8  34 20.1400 3.37973  -2
  18  18  24 20.1400 3.37973   1
  16  22  22 17.4831 5.78590  -2
  18  18  24 17.4831 5.78590   1
  10  10  32 19.4403 4.79956  -2
  18  18  24 19.4403 4.79956   1
   3  21  23 172.102 14.6262  -2
   0  20  24 172.102 14.6262   1
   5   9  29 240.311 13.2661  -2
   0  20  24 240.311 13.2661   1
   2  20  24 112.903 5.37945  -2
   2  20  24 112.903 5.37945   1
   7  11  29 89.9060 8.56793  -2
   2  20  24 89.9060 8.56793   1
   4   8  30 186.010 8.06683  -2
   2  20  24 186.010 8.06683   1
   3  21  23 107.149 11.7269  -2
   2  20  24 107.149 11.7269   1
   4  20  24 19.5568 3.12229  -2
   4  20  24 19.5568 3.12229   1
   8  12  28 16.2793 4.82316  -2
   4  20  24 16.2793 4.82316   1
   3   7  31 83.3541 8.97923  -2
   4  20  24 83.3541 8.97923   1
   1  19  25 27.4879 8.51414  -2
   4  20  24 27.4879 8.51414   1
   9  13  27 44.2154 8.27491  -2
   6  20  24 44.2154 8.27491   1
   1   5  31 65.3510 11.1616  -2
   6  20  24 65.3510 11.1616   1
   1  17  27 4.67469 11.9760  -2
   6  20  24 4.67469 11.9760   1
   5  19  25 0.15465 11.3670  -2
   6  20  24 0.15465 11.3670   1
   0   4  32 -5.0539 2.19754  -2
   8  20  24 -5.0539 2.19754   1
   0  16  28 10.0283 3.85920  -2
   8  20  24 10.0283 3.85920   1
   5  17  27 78.3751 9.60994  -2
   8  20  24 78.3751 9.60994   1
  11  15  27 -11.159 7.68895  -2
   8  20  24 -11.159 7.68895   1
  12  16  26 76.7430 5.09851  -2
  10  20  24 76.7430 5.09851   1
   1   3  33 26.6442 6.64736  -2
  10  20  24 26.6442 6.64736   1
   1  15  29 42.4328 12.7932  -2
  10  20  24 42.4328 12.7932   1
   6  16  28 147.777 5.24653  -2
  10  20  24 147.777 5.24653   1
   1   3  33 93.6742 7.77199  -2
  12  20  24 93.6742 7.77199   1
   7  15  29 189.821 12.5874  -2
  12  20  24 189.821 12.5874   1
  13  17  25 145.152 8.34321  -2
  12  20  24 145.152 8.34321   1
   1  13  31 94.6310 9.37559  -2
  12  20  24 94.6310 9.37559   1
  15  19  25 49.9461 6.03537  -2
  14  20  24 49.9461 6.03537   1
   2  12  32 54.9968 4.84053  -2
  14  20  24 54.9968 4.84053   1
   0   4  34 77.4992 4.17520  -2
  14  20  24 77.4992 4.17520   1
   7  13  31 95.8372 7.97467  -2
  14  20  24 95.8372 7.97467   1
  16  20  24 2.30614 3.20333  -2
  16  20  24 2.30614 3.20333   1
   1   5  35 27.7570 7.36759  -2
  16  20  24 27.7570 7.36759   1
   8  12  32 4.35249 3.36841  -2
  16  20  24 4.35249 3.36841   1
   3  11  33 2.63873 8.30362  -2
  16  20  24 2.63873 8.30362   1
  17  21  23 0.49131 7.02494  -2
  18  20  24 0.49131 7.02494   1
   9  11  33 17.2674 8.52586  -2
  18  20  24 17.2674 8.52586   1
   3   9  35 25.8956 8.00468  -2
  18  20  24 25.8956 8.00468   1
   3   7  35 8.07336 6.61530  -2
  18  20  24 8.07336 6.61530   1
  19  23  23 27.7894 10.3787  -2
  20  20  24 27.7894 10.3787   1
   4   8  36 11.3900 3.73224  -2
  20  20  24 11.3900 3.73224   1
   9   9  35 48.0259 12.1777  -2
  20  20  24 48.0259 12.1777   1
   7   9  31 369.077 12.9618  -2
   0  22  24 369.077 12.9618   1
   1  23  23 427.411 16.2271  -2
   0  22  24 427.411 16.2271   1
   5   7  31 382.245 13.8218  -2
   2  22  24 382.245 13.8218   1
   1  21  25 268.431 12.6122  -2
   2  22  24 268.431 12.6122   1
   8  10  30 245.642 9.44427  -2
   2  22  24 245.642 9.44427   1
   2  22  24 316.560 10.7838  -2
   2  22  24 316.560 10.7838   1
   4   6  32 185.496 8.27862  -2
   4  22  24 185.496 8.27862   1
   0  20  26 114.299 5.42525  -2
   4  22  24 114.299 5.42525   1
   3  21  25 115.116 10.4648  -2
   4  22  24 115.116 10.4648   1
   9  11  29 110.363 9.31883  -2
   4  22  24 110.363 9.31883   1
   3   5  33 28.9239 8.57474  -2
   6  22  24 28.9239 8.57474   1
   1  19  27 0.91606 13.0768  -2
   6  22  24 0.91606 13.0768   1
  11  13  29 24.8349 8.27914  -2
   6  22  24 24.8349 8.27914   1
   3  19  27 41.2570 10.8650  -2
   6  22  24 41.2570 10.8650   1
   4  18  28 131.439 6.41760  -2
   8  22  24 131.439 6.41760   1
   1  17  29 62.6124 8.88806  -2
   8  22  24 62.6124 8.88806   1
   1   3  33 17.3676 9.24567  -2
   8  22  24 17.3676 9.24567   1
  12  14  28 38.8510 5.22755  -2
   8  22  24 38.8510 5.22755   1
   2  16  30 151.474 7.31119  -2
  10  22  24 151.474 7.31119   1
   5  17  29 272.220 14.2518  -2
  10  22  24 272.220 14.2518   1
   0   2  34 165.689 7.46854  -2
  10  22  24 165.689 7.46854   1
  13  15  27 138.742 9.92847  -2
  10  22  24 138.742 9.92847   1
   3  15  31 242.547 12.3427  -2
  12  22  24 242.547 12.3427   1
   5  15  31 256.661 11.7526  -2
  12  22  24 256.661 11.7526   1
  15  17  27 229.071 9.65365  -2
  12  22  24 229.071 9.65365   1
   1   1  35 346.581 12.3934  -2
  12  22  24 346.581 12.3934   1
  16  18  26 145.159 5.76060  -2
  14  22  24 145.159 5.76060   1
   6  14  32 151.258 7.35632  -2
  14  22  24 151.258 7.35632   1
   1   3  35 222.255 9.32119  -2
  14  22  24 222.255 9.32119   1
   3  13  33 144.626 10.3786  -2
  14  22  24 144.626 10.3786   1
   7  13  33 37.8344 7.51821  -2
  16  22  24 37.8344 7.51821   1
  17  19  25 34.6551 6.79131  -2
  16  22  24 34.6551 6.79131   1
   4  12  34 54.1663 5.05649  -2
  16  22  24 54.1663 5.05649   1
   2   4  36 73.7381 5.02846  -2
  16  22  24 73.7381 5.02846   1
   3   5  37 12.0761 6.97207  -2
  18  22  24 12.0761 6.97207   1
   7  11  35 31.6751 8.11280  -2
  18  22  24 31.6751 8.11280   1
   5  11  35 44.5342 8.60717  -2
  18  22  24 44.5342 8.60717   1
  19  21  25 23.1561 7.34182  -2
  18  22  24 23.1561 7.34182   1
   5   9  37 34.0091 9.15655  -2
  20  22  24 34.0091 9.15655   1
  20  22  24 65.7799 5.20204  -2
  20  22  24 65.7799 5.20204   1
   8  10  36 71.8804 5.34084  -2
  20  22  24 71.8804 5.34084   1
   5   7  37 20.2444 7.91328  -2
  20  22  24 20.2444 7.91328   1
   8   8  32 422.314 18.0233  -2
   0  24  24 422.314 18.0233   1
   0  24  24 566.115 22.3154  -2
   0  24  24 566.115 22.3154   1
   9   9  31 344.462 18.7783  -2
   2  24  24 344.462 18.7783   1
   1  23  25 401.023 16.2891  -2
   2  24  24 401.023 16.2891   1
   7   7  33 344.104 18.4357  -2
   2  24  24 344.104 18.4357   1
  11  11  31 128.920 15.0907  -2
   4  24  24 128.920 15.0907   1
   5   5  33 149.242 14.3963  -2
   4  24  24 149.242 14.3963   1
   1  21  27 129.776 11.5369  -2
   4  24  24 129.776 11.5369   1
   2  20  28 59.2228 6.03861  -2
   6  24  24 59.2228 6.03861   1
   4   4  34 31.6258 7.40992  -2
   6  24  24 31.6258 7.40992   1
  12  12  30 59.7376 8.24647  -2
   6  24  24 59.7376 8.24647   1
   3  19  29 110.000 11.3077  -2
   8  24  24 110.000 11.3077   1
   3   3  35 66.0976 15.7252  -2
   8  24  24 66.0976 15.7252   1
  13  13  29 15.3469 11.6885  -2
   8  24  24 15.3469 11.6885   1
   1   1  35 259.292 15.5224  -2
  10  24  24 259.292 15.5224   1
   3  17  31 222.251 10.4276  -2
  10  24  24 222.251 10.4276   1
  15  15  29 190.053 15.6138  -2
  10  24  24 190.053 15.6138   1
   0   0  36 417.215 16.0765  -2
  12  24  24 417.215 16.0765   1
  16  16  28 251.393 13.8606  -2
  12  24  24 251.393 13.8606   1
   4  16  32 257.651 9.09518  -2
  12  24  24 257.651 9.09518   1
   1   1  37 257.392 16.5281  -2
  14  24  24 257.392 16.5281   1
  17  17  27 210.214 16.2572  -2
  14  24  24 210.214 16.2572   1
   5  15  33 183.996 11.6245  -2
  14  24  24 183.996 11.6245   1
   5  13  35 80.7621 10.0159  -2
  16  24  24 80.7621 10.0159   1
  19  19  27 84.1796 15.3143  -2
  16  24  24 84.1796 15.3143   1
   3   3  37 69.7034 12.2635  -2
  16  24  24 69.7034 12.2635   1
  20  20  26 38.4955 6.42556  -2
  18  24  24 38.4955 6.42556   1
   6  12  36 70.4884 5.45687  -2
  18  24  24 70.4884 5.45687   1
   4   4  38 30.2279 5.24030  -2
  18  24  24 30.2279 5.24030   1
   7  17  17 1486.58 35.8487  -2
   1   1  25 1486.58 35.8487   1
   8  16  18 1266.20 29.9696  -2
   1   1  25 1266.20 29.9696   1
  10  16  16 1118.51 56.8048  -2
   1   1  25 1118.51 56.8048   1
   7  15  19 772.138 15.4249  -2
   1   3  25 772.138 15.4249   1
  11  15  17 615.631 11.7578  -2
   1   3  25 615.631 11.7578   1
  10  14  18 609.372 19.9882  -2
   1   3  25 609.372 19.9882   1
   6  16  18 998.853 22.7203  -2
   1   3  25 998.853 22.7203   1
   8  14  20 398.828 11.6607  -2
   3   3  25 398.828 11.6607   1
   4  18  18 763.926 24.2489  -2
   3   3  25 763.926 24.2489   1
  12  16  16 465.395 46.4640  -2
   3   3  25 465.395 46.4640   1
  12  14  18 104.138 12.4906  -2
   1   5  25 104.138 12.4906   1
   6  14  20 151.094 8.95997  -2
   1   5  25 151.094 8.95997   1
   4  16  20 240.624 10.1460  -2
   1   5  25 240.624 10.1460   1
  11  13  19 144.947 5.29641  -2
   1   5  25 144.947 5.29641   1
  14  14  16 46.3388 7.02547  -2
   3   5  25 46.3388 7.02547   1
   7  13  21 60.7753 3.23543  -2
   3   5  25 60.7753 3.23543   1
   3  17  19 225.426 5.86856  -2
   3   5  25 225.426 5.86856   1
  10  12  20 115.210 9.40887  -2
   3   5  25 115.210 9.40887   1
   2  18  18 120.189 8.00642  -2
   5   5  25 120.189 8.00642   1
   8  12  22 106.015 11.7498  -2
   5   5  25 106.015 11.7498   1
  15  15  15 23.8031 2.89497  -2
   5   5  25 23.8031 2.89497   1
   3  15  21 40.8035 4.07208  -2
   1   7  25 40.8035 4.07208   1
   4  14  22 60.0169 6.55205  -2
   1   7  25 60.0169 6.55205   1
  12  14  18 32.8765 19.2093  -2
   1   7  25 32.8765 19.2093   1
  12  12  20 117.963 11.4838  -2
   1   7  25 117.963 11.4838   1
   6  12  22 61.0991 5.79644  -2
   3   7  25 61.0991 5.79644   1
  11  11  21 155.658 5.82101  -2
   3   7  25 155.658 5.82101   1
  13  15  17 2.61213 2.59758  -2
   3   7  25 2.61213 2.59758   1
   2  16  20 22.1095 7.52455  -2
   3   7  25 22.1095 7.52455   1
   7  11  23 147.122 6.68875  -2
   5   7  25 147.122 6.68875   1
   0  18  20 104.213 6.62168  -2
   5   7  25 104.213 6.62168   1
  10  10  22 183.856 11.3470  -2
   5   7  25 183.856 11.3470   1
  14  16  16 62.3227 8.24856  -2
   5   7  25 62.3227 8.24856   1
   1  19  19 189.518 6.39087  -2
   7   7  25 189.518 6.39087   1
   8  10  24 177.533 14.9574  -2
   7   7  25 177.533 14.9574   1
  14  14  18 150.445 12.1955  -2
   7   7  25 150.445 12.1955   1
   3  13  23 390.005 10.5254  -2
   1   9  25 390.005 10.5254   1
   2  14  22 301.257 13.2273  -2
   1   9  25 301.257 13.2273   1
  11  15  19 241.833 7.63863  -2
   1   9  25 241.833 7.63863   1
  10  14  20 245.632 18.6218  -2
   1   9  25 245.632 18.6218   1
  10  12  22 303.723 13.8693  -2
   3   9  25 303.723 13.8693   1
   0  16  22 154.129 8.34603  -2
   3   9  25 154.129 8.34603   1
   4  12  24 304.970 13.3592  -2
   3   9  25 304.970 13.3592   1
  12  16  18 139.790 14.1126  -2
   3   9  25 139.790 14.1126   1
   9  11  23 150.498 5.61886  -2
   5   9  25 150.498 5.61886   1
   1  17  21 -0.8870 2.24628  -2
   5   9  25 -0.8870 2.24628   1
   6  10  24 8.24048 13.6584  -2
   5   9  25 8.24048 13.6584   1
  12  16  18 16.0731 12.2719  -2
   5   9  25 16.0731 12.2719   1
  13  15  19 8.15212 2.29575  -2
   7   9  25 8.15212 2.29575   1
   7   9  25 8.93556 3.93286  -2
   7   9  25 8.93556 3.93286   1
   2  18  20 56.6842 6.12825  -2
   7   9  25 56.6842 6.12825   1
   8  10  24 5.91568 14.0199  -2
   7   9  25 5.91568 14.0199   1
   8   8  26 69.7729 12.7094  -2
   9   9  25 69.7729 12.7094   1
  14  14  20 38.1521 12.8700  -2
   9   9  25 38.1521 12.8700   1
   4  20  20 194.441 7.91148  -2
   9   9  25 194.441 7.91148   1
   2  12  24 810.775 22.0804  -2
   1  11  25 810.775 22.0804   1
   0  14  24 757.950 19.6206  -2
   1  11  25 757.950 19.6206   1
   9  15  21 481.942 11.8558  -2
   1  11  25 481.942 11.8558   1
  10  16  20 550.189 27.8920  -2
   1  11  25 550.189 27.8920   1
  10  18  18 455.855 17.8864  -2
   3  11  25 455.855 17.8864   1
   3  11  25 519.504 12.9934  -2
   3  11  25 519.504 12.9934   1
   1  15  23 458.844 10.6748  -2
   3  11  25 458.844 10.6748   1
   8  14  22 341.156 18.6895  -2
   3  11  25 341.156 18.6895   1
   8  12  24 260.226 14.7614  -2
   5  11  25 260.226 14.7614   1
   2  16  22 113.930 7.99603  -2
   5  11  25 113.930 7.99603   1
   4  10  26 116.073 12.9253  -2
   5  11  25 116.073 12.9253   1
  11  17  19 182.187 6.36584  -2
   5  11  25 182.187 6.36584   1
   7  11  25 102.130 5.38819  -2
   7  11  25 102.130 5.38819   1
   4  18  22 114.843 6.19093  -2
   7  11  25 114.843 6.19093   1
  12  16  20 87.7188 11.0546  -2
   7  11  25 87.7188 11.0546   1
   6   8  26 114.428 15.7684  -2
   7  11  25 114.428 15.7684   1
   7   7  27 386.751 11.9382  -2
   9  11  25 386.751 11.9382   1
  12  14  22 473.438 15.4727  -2
   9  11  25 473.438 15.4727   1
   5  19  21 460.003 10.7345  -2
   9  11  25 460.003 10.7345   1
   6  10  26 326.753 16.8138  -2
   9  11  25 326.753 16.8138   1
   6   8  28 760.707 27.3530  -2
  11  11  25 760.707 27.3530   1
   6  20  20 827.843 24.8453  -2
  11  11  25 827.843 24.8453   1
  13  13  23 968.428 30.2551  -2
  11  11  25 968.428 30.2551   1
   1  13  25 780.147 16.9643  -2
   1  13  25 780.147 16.9643   1
   0  12  26 735.925 19.2032  -2
   1  13  25 735.925 19.2032   1
   8  18  20 677.625 22.4203  -2
   1  13  25 677.625 22.4203   1
   8  16  22 550.260 25.2481  -2
   1  13  25 550.260 25.2481   1
   2  14  24 484.914 14.9278  -2
   3  13  25 484.914 14.9278   1
   7  15  23 306.443 9.02032  -2
   3  13  25 306.443 9.02032   1
   2  10  26 425.232 13.7578  -2
   3  13  25 425.232 13.7578   1
   9  19  19 423.054 10.2561  -2
   3  13  25 423.054 10.2561   1
   3   9  27 103.279 5.25328  -2
   5  13  25 103.279 5.25328   1
   4  16  24 110.363 7.32208  -2
   5  13  25 110.363 7.32208   1
  10  18  20 156.798 8.70376  -2
   5  13  25 156.798 8.70376   1
   6  14  24 124.912 11.5035  -2
   5  13  25 124.912 11.5035   1
   4   8  28 153.617 9.93497  -2
   7  13  25 153.617 9.93497   1
   5  17  23 115.284 5.64264  -2
   7  13  25 115.284 5.64264   1
   6  12  26 95.1908 13.3510  -2
   7  13  25 95.1908 13.3510   1
  10  16  22 84.1645 15.2751  -2
   7  13  25 84.1645 15.2751   1
   5  11  27 287.612 9.26309  -2
   9  13  25 287.612 9.26309   1
   6   6  28 494.056 23.4412  -2
   9  13  25 494.056 23.4412   1
   6  18  22 408.029 11.9426  -2
   9  13  25 408.029 11.9426   1
  11  15  23 410.634 9.98359  -2
   9  13  25 410.634 9.98359   1
   8  20  22 608.761 13.9517  -2
  11  13  25 608.761 13.9517   1
   5   7  29 753.697 19.2895  -2
  11  13  25 753.697 19.2895   1
  12  14  24 891.530 25.2118  -2
  11  13  25 891.530 25.2118   1
   4  10  28 642.445 24.5025  -2
  11  13  25 642.445 24.5025   1
   4   8  30 662.420 25.0660  -2
  13  13  25 662.420 25.0660   1
  12  12  26 819.375 35.7311  -2
  13  13  25 819.375 35.7311   1
   9  21  21 538.848 15.2195  -2
  13  13  25 538.848 15.2195   1
   1  11  27 320.382 10.5889  -2
   1  15  25 320.382 10.5889   1
   7  19  21 327.635 9.74822  -2
   1  15  25 327.635 9.74822   1
   2  12  26 356.231 12.6837  -2
   1  15  25 356.231 12.6837   1
   6  18  22 309.885 20.6120  -2
   1  15  25 309.885 20.6120   1
   4  14  26 85.6885 8.41302  -2
   3  15  25 85.6885 8.41302   1
   8  20  20 188.003 11.3852  -2
   3  15  25 188.003 11.3852   1
   6  16  24 98.8800 9.96005  -2
   3  15  25 98.8800 9.96005   1
   0  10  28 99.5037 8.47782  -2
   3  15  25 99.5037 8.47782   1
   8  18  22 65.3345 8.23212  -2
   5  15  25 65.3345 8.23212   1
   2   8  28 14.2587 4.68714  -2
   5  15  25 14.2587 4.68714   1
   5  15  25 0.81385 2.29111  -2
   5  15  25 0.81385 2.29111   1
   6  16  24 14.7732 6.58091  -2
   7  15  25 14.7732 6.58091   1
   9  17  23 0.67445 3.23441  -2
   7  15  25 0.67445 3.23441   1
   4  14  26 14.7586 8.05422  -2
   7  15  25 14.7586 8.05422   1
   3   7  29 114.580 5.46757  -2
   7  15  25 114.580 5.46757   1
  10  16  24 103.336 11.3973  -2
   9  15  25 103.336 11.3973   1
   4   6  30 225.348 9.86982  -2
   9  15  25 225.348 9.86982   1
   8  18  24 74.8135 7.27866  -2
   9  15  25 74.8135 7.27866   1
   4  12  28 76.6554 9.27889  -2
   9  15  25 76.6554 9.27889   1
   9  19  23 234.160 7.89156  -2
  11  15  25 234.160 7.89156   1
  10  14  26 330.595 13.2946  -2
  11  15  25 330.595 13.2946   1
   3  11  29 228.596 8.06080  -2
  11  15  25 228.596 8.06080   1
   4   6  30 393.345 19.0852  -2
  11  15  25 393.345 19.0852   1
   3   7  31 316.180 8.33814  -2
  13  15  25 316.180 8.33814   1
  10  20  22 257.750 8.68479  -2
  13  15  25 257.750 8.68479   1
   2  10  30 269.450 12.3009  -2
  13  15  25 269.450 12.3009   1
  11  13  27 323.488 9.15766  -2
  13  15  25 323.488 9.15766   1
  12  22  22 162.988 10.7378  -2
  15  15  25 162.988 10.7378   1
   2   8  32 99.3811 10.1570  -2
  15  15  25 99.3811 10.1570   1
  12  12  28 134.499 12.0985  -2
  15  15  25 134.499 12.0985   1
   4  12  28 75.5452 6.91765  -2
   1  17  25 75.5452 6.91765   1
   5  19  23 72.2140 4.86745  -2
   1  17  25 72.2140 4.86745   1
   2  10  28 96.5040 9.78617  -2
   1  17  25 96.5040 9.78617   1
   6  20  22 49.7287 10.8910  -2
   1  17  25 49.7287 10.8910   1
   6  20  22 4.10009 9.50294  -2
   3  17  25 4.10009 9.50294   1
   1   9  29 6.96505 3.38013  -2
   3  17  25 6.96505 3.38013   1
   5  13  27 13.9013 3.34356  -2
   3  17  25 13.9013 3.34356   1
   4  18  24 -10.858 9.75703  -2
   3  17  25 -10.858 9.75703   1
   4  16  26 24.1831 10.5531  -2
   5  17  25 24.1831 10.5531   1
   0   8  30 31.6492 6.43644  -2
   5  17  25 31.6492 6.43644   1
   7  19  23 19.8894 4.03457  -2
   5  17  25 19.8894 4.03457   1
   6  14  26 12.7015 6.32176  -2
   5  17  25 12.7015 6.32176   1
   3  15  27 36.8529 4.22902  -2
   7  17  25 36.8529 4.22902   1
   8  16  26 26.0691 5.60800  -2
   7  17  25 26.0691 5.60800   1
   2   6  30 113.828 9.54086  -2
   7  17  25 113.828 9.54086   1
   8  18  24 32.9611 9.83122  -2
   7  17  25 32.9611 9.83122   1
   8  16  26 -10.286 7.57705  -2
   9  17  25 -10.286 7.57705   1
   9  17  25 0.89244 3.37955  -2
   9  17  25 0.89244 3.37955   1
   3   5  31 96.9809 4.54632  -2
   9  17  25 96.9809 4.54632   1
   2  14  28 -1.4685 8.93852  -2
   9  17  25 -1.4685 8.93852   1
   9  15  27 61.4366 4.00621  -2
  11  17  25 61.4366 4.00621   1
  10  18  24 75.5284 7.59057  -2
  11  17  25 75.5284 7.59057   1
   2  12  30 65.3968 9.05502  -2
  11  17  25 65.3968 9.05502   1
   4   4  32 128.052 9.58911  -2
  11  17  25 128.052 9.58911   1
  12  20  24 123.826 6.19148  -2
  13  17  25 123.826 6.19148   1
  10  14  28 63.9421 7.48016  -2
  13  17  25 63.9421 7.48016   1
   1  11  31 71.7098 4.83386  -2
  13  17  25 71.7098 4.83386   1
   2   6  32 88.4140 7.23460  -2
  13  17  25 88.4140 7.23460   1
   0  10  32 12.4415 7.55211  -2
  15  17  25 12.4415 7.55211   1
   1   7  33 9.68517 3.16224  -2
  15  17  25 9.68517 3.16224   1
  10  12  30 16.4011 8.63948  -2
  15  17  25 16.4011 8.63948   1
  13  21  23 76.4377 4.76942  -2
  15  17  25 76.4377 4.76942   1
  14  22  22 41.1694 9.17570  -2
  17  17  25 41.1694 9.17570   1
   0   8  34 20.5035 7.05324  -2
  17  17  25 20.5035 7.05324   1
  11  11  31 -1.9549 5.22971  -2
  17  17  25 -1.9549 5.22971   1
   4  10  30 87.1962 9.14912  -2
   1  19  25 87.1962 9.14912   1
   4  20  24 32.8573 12.6852  -2
   1  19  25 32.8573 12.6852   1
   4  22  22 58.0991 11.3235  -2
   1  19  25 58.0991 11.3235   1
   5  11  29 69.4782 5.70426  -2
   1  19  25 69.4782 5.70426   1
   3  19  25 -3.4935 3.61900  -2
   3  19  25 -3.4935 3.61900   1
   5  21  23 13.2026 3.47299  -2
   3  19  25 13.2026 3.47299   1
   6  12  28 8.11377 7.59446  -2
   3  19  25 8.11377 7.59446   1
   2   8  30 49.6652 8.60020  -2
   3  19  25 49.6652 8.60020   1
   2  18  26 8.41052 11.6699  -2
   5  19  25 8.41052 11.6699   1
   8  14  28 13.5822 7.79365  -2
   5  19  25 13.5822 7.79365   1
   1   7  31 51.5965 3.72877  -2
   5  19  25 51.5965 3.72877   1
   6  20  24 -5.3467 12.7040  -2
   5  19  25 -5.3467 12.7040   1
   9  15  27 32.0170 4.14322  -2
   7  19  25 32.0170 4.14322   1
   0   6  32 42.2881 6.45753  -2
   7  19  25 42.2881 6.45753   1
   6  18  26 83.3521 10.5684  -2
   7  19  25 83.3521 10.5684   1
   2  16  28 54.8746 11.5787  -2
   7  19  25 54.8746 11.5787   1
   2   4  32 20.9662 6.64362  -2
   9  19  25 20.9662 6.64362   1
  10  16  26 2.95877 6.30261  -2
   9  19  25 2.95877 6.30261   1
   7  17  27 68.1854 3.64949  -2
   9  19  25 68.1854 3.64949   1
   1  15  29 19.9624 4.04934  -2
   9  19  25 19.9624 4.04934   1
   3   3  33 31.8580 3.57220  -2
  11  19  25 31.8580 3.57220   1
  12  18  26 30.5178 7.05473  -2
  11  19  25 30.5178 7.05473   1
   8  16  28 105.559 9.29585  -2
  11  19  25 105.559 9.29585   1
   0  14  30 11.7641 11.1548  -2
  11  19  25 11.7641 11.1548   1
   0  12  32 54.3059 8.53551  -2
  13  19  25 54.3059 8.53551   1
  13  19  25 68.6803 5.12586  -2
  13  19  25 68.6803 5.12586   1
   2   4  34 49.8796 6.55857  -2
  13  19  25 49.8796 6.55857   1
   8  14  30 79.6604 9.32023  -2
  13  19  25 79.6604 9.32023   1
   1  11  33 41.8775 4.57520  -2
  15  19  25 41.8775 4.57520   1
   0   6  34 12.8049 6.74973  -2
  15  19  25 12.8049 6.74973   1
   9  13  31 9.01164 3.47131  -2
  15  19  25 9.01164 3.47131   1
  14  20  24 12.3047 5.94078  -2
  15  19  25 12.3047 5.94078   1
   2  10  34 41.2475 8.70189  -2
  17  19  25 41.2475 8.70189   1
  16  22  24 18.7616 6.51854  -2
  17  19  25 18.7616 6.51854   1
  10  12  32 -10.225 8.92311  -2
  17  19  25 -10.225 8.92311   1
   1   7  35 25.4659 4.21968  -2
  17  19  25 25.4659 4.21968   1
  10  10  34 14.0963 13.3507  -2
  19  19  25 14.0963 13.3507   1
  17  23  23 18.1147 5.63375  -2
  19  19  25 18.1147 5.63375   1
   2   8  36 52.2486 8.12279  -2
  19  19  25 52.2486 8.12279   1
   3  23  23 216.029 9.09749  -2
   1  21  25 216.029 9.09749   1
   6  10  30 201.182 10.2385  -2
   1  21  25 201.182 10.2385   1
   2  22  24 222.439 13.5081  -2
   1  21  25 222.439 13.5081   1
   5   9  31 213.566 8.83501  -2
   1  21  25 213.566 8.83501   1
   4  22  24 88.4136 9.91400  -2
   3  21  25 88.4136 9.91400   1
   2  20  26 48.2380 13.3625  -2
   3  21  25 48.2380 13.3625   1
   4   8  32 106.422 9.60408  -2
   3  21  25 106.422 9.60408   1
   8  12  30 69.8493 8.85705  -2
   3  21  25 69.8493 8.85705   1
   1  19  27 -2.5623 3.65869  -2
   5  21  25 -2.5623 3.65869   1
   9  13  29 0.94647 4.36109  -2
   5  21  25 0.94647 4.36109   1
   2   6  32 27.7408 8.71000  -2
   5  21  25 27.7408 8.71000   1
   4  20  26 6.69962 10.1122  -2
   5  21  25 6.69962 10.1122   1
   0  18  28 7.18579 10.0224  -2
   7  21  25 7.18579 10.0224   1
   1   5  33 -3.3615 3.71331  -2
   7  21  25 -3.3615 3.71331   1
   5  19  27 63.0089 5.85336  -2
   7  21  25 63.0089 5.85336   1
  10  14  28 -3.6747 8.17877  -2
   7  21  25 -3.6747 8.17877   1
  12  16  28 30.6575 8.51483  -2
   9  21  25 30.6575 8.51483   1
   0   4  34 45.8842 9.03170  -2
   9  21  25 45.8842 9.03170   1
   0  16  30 38.2375 11.0045  -2
   9  21  25 38.2375 11.0045   1
   6  18  28 137.162 11.0029  -2
   9  21  25 137.162 11.0029   1
   2   2  34 131.494 7.80651  -2
  11  21  25 131.494 7.80651   1
   1  15  31 91.1461 5.78067  -2
  11  21  25 91.1461 5.78067   1
  13  17  27 91.5938 5.59910  -2
  11  21  25 91.5938 5.59910   1
   6  16  30 242.065 12.1537  -2
  11  21  25 242.065 12.1537   1
   2  14  32 96.7954 11.4053  -2
  13  21  25 96.7954 11.4053   1
   1   3  35 164.656 6.37250  -2
  13  21  25 164.656 6.37250   1
   7  15  31 161.652 6.40602  -2
  13  21  25 161.652 6.40602   1
  14  18  26 113.400 8.29259  -2
  13  21  25 113.400 8.29259   1
   2  12  34 75.6235 9.04231  -2
  15  21  25 75.6235 9.04231   1
   0   4  36 60.7627 7.65117  -2
  15  21  25 60.7627 7.65117   1
   8  14  32 23.8630 8.20223  -2
  15  21  25 23.8630 8.20223   1
  16  20  26 26.8016 6.08909  -2
  15  21  25 26.8016 6.08909   1
   8  12  34 23.8449 11.0321  -2
  17  21  25 23.8449 11.0321   1
  17  21  25 -1.0572 3.34045  -2
  17  21  25 -1.0572 3.34045   1
   3  11  35 66.3618 5.47832  -2
  17  21  25 66.3618 5.47832   1
   2   6  36 31.9063 7.91845  -2
  17  21  25 31.9063 7.91845   1
   9  11  35 46.6027 4.77298  -2
  19  21  25 46.6027 4.77298   1
  18  22  24 -1.0820 7.18520  -2
  19  21  25 -1.0820 7.18520   1
   3   7  37 8.71324 4.02408  -2
  19  21  25 8.71324 4.02408   1
   4  10  36 51.2118 8.63375  -2
  19  21  25 51.2118 8.63375   1
   2  24  24 426.633 16.4098  -2
   1  23  25 426.633 16.4098   1
   1  23  25 381.689 12.2910  -2
   1  23  25 381.689 12.2910   1
   8  10  32 299.946 12.1065  -2
   1  23  25 299.946 12.1065   1
   6   8  32 401.021 13.7988  -2
   1  23  25 401.021 13.7988   1
   5   7  33 216.068 9.05705  -2
   3  23  25 216.068 9.05705   1
   2  22  26 221.324 12.8068  -2
   3  23  25 221.324 12.8068   1
   9  11  31 163.369 8.16629  -2
   3  23  25 163.369 8.16629   1
   0  22  26 229.543 13.1564  -2
   3  23  25 229.543 13.1564   1
   4   6  34 60.4850 9.35541  -2
   5  23  25 60.4850 9.35541   1
   3  21  27 46.2981 5.62034  -2
   5  23  25 46.2981 5.62034   1
  10  12  30 39.3102 9.11136  -2
   5  23  25 39.3102 9.11136   1
   0  20  28 44.1674 9.96491  -2
   5  23  25 44.1674 9.96491   1
   1  19  29 54.1633 5.04792  -2
   7  23  25 54.1633 5.04792   1
   2   4  34 14.6313 9.37669  -2
   7  23  25 14.6313 9.37669   1
   4  20  28 72.9336 10.7083  -2
   7  23  25 72.9336 10.7083   1
  12  14  30 31.6057 8.77858  -2
   7  23  25 31.6057 8.77858   1
   4  18  30 176.307 11.0504  -2
   9  23  25 176.307 11.0504   1
  13  15  29 64.5427 6.04484  -2
   9  23  25 64.5427 6.04484   1
   2  18  30 131.416 9.29142  -2
   9  23  25 131.416 9.29142   1
   1   3  35 132.790 7.41476  -2
   9  23  25 132.790 7.41476   1
   0   2  36 277.934 11.5348  -2
  11  23  25 277.934 11.5348   1
   5  17  31 289.727 9.49788  -2
  11  23  25 289.727 9.49788   1
   2  16  32 200.257 11.0939  -2
  11  23  25 200.257 11.0939   1
  14  16  28 199.186 11.4056  -2
  11  23  25 199.186 11.4056   1
  16  18  28 237.221 11.7453  -2
  13  23  25 237.221 11.7453   1
   3  15  33 205.464 8.07755  -2
  13  23  25 205.464 8.07755   1
   6  16  32 240.120 12.9611  -2
  13  23  25 240.120 12.9611   1
   0   2  36 304.413 11.9199  -2
  13  23  25 304.413 11.9199   1
  17  19  27 103.249 6.19104  -2
  15  23  25 103.249 6.19104   1
   1   3  37 121.493 5.70913  -2
  15  23  25 121.493 5.70913   1
   4  14  34 88.4824 10.1456  -2
  15  23  25 88.4824 10.1456   1
   6  14  34 86.8364 9.68191  -2
  15  23  25 86.8364 9.68191   1
   4  12  36 67.3069 9.95288  -2
  17  23  25 67.3069 9.95288   1
  18  20  26 31.4434 8.10736  -2
  17  23  25 31.4434 8.10736   1
   7  13  35 48.9589 5.42453  -2
  17  23  25 48.9589 5.42453   1
   2   4  38 22.4741 7.56241  -2
  17  23  25 22.4741 7.56241   1
   0  24  26 341.107 15.5633  -2
   1  25  25 341.107 15.5633   1
   8   8  34 252.933 16.5221  -2
   1  25  25 252.933 16.5221   1
   9   9  33 248.555 13.8755  -2
   1  25  25 248.555 13.8755   1
   6   6  34 148.577 14.9377  -2
   3  25  25 148.577 14.9377   1
  10  10  32 136.697 14.7184  -2
   3  25  25 136.697 14.7184   1
   1  23  27 149.891 8.79366  -2
   3  25  25 149.891 8.79366   1
   5   5  35 45.8674 7.61149  -2
   5  25  25 45.8674 7.61149   1
  12  12  32 54.1892 13.2398  -2
   5  25  25 54.1892 13.2398   1
   2  22  28 13.6393 10.6316  -2
   5  25  25 13.6393 10.6316   1
  13  13  31 12.8376 7.33176  -2
   7  25  25 12.8376 7.33176   1
   2  20  30 54.7744 10.3484  -2
   7  25  25 54.7744 10.3484   1
   4   4  36 26.7966 14.9240  -2
   7  25  25 26.7966 14.9240   1
   3  19  31 119.825 6.52024  -2
   9  25  25 119.825 6.52024   1
  14  14  30 100.801 14.4474  -2
   9  25  25 100.801 14.4474   1
   2   2  36 140.629 14.2906  -2
   9  25  25 140.629 14.2906   1
   4  18  32 243.083 11.3775  -2
  11  25  25 243.083 11.3775   1
   1   1  37 254.367 13.6800  -2
  11  25  25 254.367 13.6800   1
  16  16  30 210.621 16.8735  -2
  11  25  25 210.621 16.8735   1
  17  17  29 226.519 13.5894  -2
  13  25  25 226.519 13.5894   1
   0   0  38 194.098 15.4112  -2
  13  25  25 194.098 15.4112   1
   4  16  34 149.849 10.2332  -2
  13  25  25 149.849 10.2332   1
   5  15  35 67.1053 5.96118  -2
  15  25  25 67.1053 5.96118   1
  18  18  28 169.160 15.7087  -2
  15  25  25 169.160 15.7087   1
   2   2  38 75.4156 13.0303  -2
  15  25  25 75.4156 13.0303   1
   9  17  17 1312.85 60.3531  -2
   0   0  26 1312.85 60.3531   1
   7  17  19 1080.29 24.7157  -2
   0   2  26 1080.29 24.7157   1
  10  16  18 739.492 15.1146  -2
   0   2  26 739.492 15.1146   1
   9  15  19 445.485 14.9623  -2
   2   2  26 445.485 14.9623   1
   6  18  18 924.207 26.0518  -2
   2   2  26 924.207 26.0518   1
  11  17  17 461.789 19.7421  -2
   2   2  26 461.789 19.7421   1
   6  16  20 335.662 8.40895  -2
   0   4  26 335.662 8.40895   1
  11  15  19 129.242 10.0076  -2
   0   4  26 129.242 10.0076   1
   5  17  19 492.199 14.5575  -2
   2   4  26 492.199 14.5575   1
  10  14  20 66.7989 4.33060  -2
   2   4  26 66.7989 4.33060   1
  13  15  17 63.0542 9.83309  -2
   2   4  26 63.0542 9.83309   1
   7  15  21 81.7904 5.45167  -2
   2   4  26 81.7904 5.45167   1
  14  16  16 2.57643 3.10326  -2
   4   4  26 2.57643 3.10326   1
   3  19  19 144.146 9.09615  -2
   4   4  26 144.146 9.09615   1
   9  13  21 79.1607 8.07445  -2
   4   4  26 79.1607 8.07445   1
  13  13  19 32.4117 14.8863  -2
   0   6  26 32.4117 14.8863   1
   5  15  21 55.9389 7.79393  -2
   0   6  26 55.9389 7.79393   1
   3  17  21 41.3175 6.23325  -2
   2   6  26 41.3175 6.23325   1
  11  13  21 121.048 9.88554  -2
   2   6  26 121.048 9.88554   1
   6  14  22 23.0258 3.27088  -2
   2   6  26 23.0258 3.27088   1
  14  14  18 5.97887 2.49107  -2
   2   6  26 5.97887 2.49107   1
  10  12  22 262.436 7.62771  -2
   4   6  26 262.436 7.62771   1
   2  18  20 130.874 5.13617  -2
   4   6  26 130.874 5.13617   1
   7  13  23 153.897 12.0486  -2
   4   6  26 153.897 12.0486   1
  15  15  17 94.4372 9.64975  -2
   4   6  26 94.4372 9.64975   1
   1  19  19 239.911 10.7124  -2
   6   6  26 239.911 10.7124   1
   9  11  23 327.043 18.3758  -2
   6   6  26 327.043 18.3758   1
  15  15  17 205.315 19.0513  -2
   6   6  26 205.315 19.0513   1
   3  15  23 145.181 9.05798  -2
   0   8  26 145.181 9.05798   1
  12  14  20 115.725 5.25132  -2
   0   8  26 115.725 5.25132   1
   5  13  23 147.339 9.26400  -2
   2   8  26 147.339 9.26400   1
   2  16  22 57.6408 4.57370  -2
   2   8  26 57.6408 4.57370   1
  11  13  21 159.463 13.6341  -2
   2   8  26 159.463 13.6341   1
  13  15  19 37.4453 11.3563  -2
   2   8  26 37.4453 11.3563   1
   6  12  24 87.2227 6.47022  -2
   4   8  26 87.2227 6.47022   1
  11  11  23 337.707 13.5975  -2
   4   8  26 337.707 13.5975   1
  13  17  17 16.8178 11.6350  -2
   4   8  26 16.8178 11.6350   1
   1  17  21 10.0999 4.81628  -2
   4   8  26 10.0999 4.81628   1
   7  11  25 103.470 12.7276  -2
   6   8  26 103.470 12.7276   1
  14  16  18 133.718 4.76795  -2
   6   8  26 133.718 4.76795   1
  10  10  24 270.047 8.48327  -2
   6   8  26 270.047 8.48327   1
   1  19  21 94.5114 5.39753  -2
   6   8  26 94.5114 5.39753   1
   9   9  25 86.4212 15.8389  -2
   8   8  26 86.4212 15.8389   1
   2  20  20 45.0566 3.27575  -2
   8   8  26 45.0566 3.27575   1
  15  15  19 45.8810 14.4229  -2
   8   8  26 45.8810 14.4229   1
  11  15  21 307.354 19.8191  -2
   0  10  26 307.354 19.8191   1
   2  14  24 498.320 13.6881  -2
   0  10  26 498.320 13.6881   1
   1  15  23 358.092 12.3153  -2
   2  10  26 358.092 12.3153   1
  10  14  22 297.729 8.77565  -2
   2  10  26 297.729 8.77565   1
  11  17  19 256.545 15.1679  -2
   2  10  26 256.545 15.1679   1
   3  13  25 397.476 14.6130  -2
   2  10  26 397.476 14.6130   1
  12  18  18 107.371 5.84429  -2
   4  10  26 107.371 5.84429   1
   1  17  23 48.5400 6.12607  -2
   4  10  26 48.5400 6.12607   1
   5  11  25 81.4401 8.18185  -2
   4  10  26 81.4401 8.18185   1
   9  13  23 170.709 14.0214  -2
   4  10  26 170.709 14.0214   1
  13  17  19 53.5201 9.36716  -2
   6  10  26 53.5201 9.36716   1
   2  18  22 1.15805 2.56391  -2
   6  10  26 1.15805 2.56391   1
   6  10  26 0.50266 3.97368  -2
   6  10  26 0.50266 3.97368   1
   9  11  25 150.930 12.3676  -2
   6  10  26 150.930 12.3676   1
   3  19  21 72.7120 5.04659  -2
   8  10  26 72.7120 5.04659   1
   8  10  26 50.1623 3.97996  -2
   8  10  26 50.1623 3.97996   1
  13  15  21 56.7421 7.43045  -2
   8  10  26 56.7421 7.43045   1
   7   9  27 38.3924 11.7988  -2
   8  10  26 38.3924 11.7988   1
   5  21  21 219.035 8.87680  -2
  10  10  26 219.035 8.87680   1
  14  14  22 319.957 11.7513  -2
  10  10  26 319.957 11.7513   1
   7   9  27 236.317 17.0226  -2
  10  10  26 236.317 17.0226   1
   9  17  21 424.733 19.6282  -2
   0  12  26 424.733 19.6282   1
   1  13  25 668.358 19.1958  -2
   0  12  26 668.358 19.1958   1
  10  18  20 343.711 9.74350  -2
   2  12  26 343.711 9.74350   1
   1  15  25 406.064 13.4949  -2
   2  12  26 406.064 13.4949   1
   2  12  26 410.530 11.3256  -2
   2  12  26 410.530 11.3256   1
   9  15  23 313.442 17.9317  -2
   2  12  26 313.442 17.9317   1
   3  11  27 96.4716 8.36027  -2
   4  12  26 96.4716 8.36027   1
   8  14  24 132.792 6.14188  -2
   4  12  26 132.792 6.14188   1
   2  16  24 116.386 5.06322  -2
   4  12  26 116.386 5.06322   1
  11  19  19 122.913 10.9549  -2
   4  12  26 122.913 10.9549   1
  11  17  21 37.4890 8.81615  -2
   6  12  26 37.4890 8.81615   1
   5   9  27 16.9298 12.0549  -2
   6  12  26 16.9298 12.0549   1
   7  13  25 73.7656 10.2524  -2
   6  12  26 73.7656 10.2524   1
   3  17  23 17.9316 5.75086  -2
   6  12  26 17.9316 5.75086   1
   7  11  27 105.575 11.6217  -2
   8  12  26 105.575 11.6217   1
   6   8  28 218.880 9.05090  -2
   8  12  26 218.880 9.05090   1
  12  16  22 146.529 5.18223  -2
   8  12  26 146.529 5.18223   1
   5  19  23 115.225 6.54500  -2
   8  12  26 115.225 6.54500   1
   6  10  28 358.981 9.97000  -2
  10  12  26 358.981 9.97000   1
  13  15  23 453.852 14.0112  -2
  10  12  26 453.852 14.0112   1
   6  20  22 353.490 8.98275  -2
  10  12  26 353.490 8.98275   1
   7   7  29 524.234 20.3328  -2
  10  12  26 524.234 20.3328   1
   7  21  21 489.615 15.2525  -2
  12  12  26 489.615 15.2525   1
  13  13  25 784.533 31.0211  -2
  12  12  26 784.533 31.0211   1
   5   9  29 588.177 26.4678  -2
  12  12  26 588.177 26.4678   1
   8  18  22 294.808 9.19305  -2
   0  14  26 294.808 9.19305   1
   1  13  27 309.453 11.8876  -2
   0  14  26 309.453 11.8876   1
   2  14  26 231.481 7.51232  -2
   2  14  26 231.481 7.51232   1
   1  11  27 244.170 10.7900  -2
   2  14  26 244.170 10.7900   1
   9  19  21 193.695 11.7242  -2
   2  14  26 193.695 11.7242   1
   7  17  23 183.321 13.9692  -2
   2  14  26 183.321 13.9692   1
   9  19  21 74.6622 8.83939  -2
   4  14  26 74.6622 8.83939   1
   7  15  25 25.8963 8.82925  -2
   4  14  26 25.8963 8.82925   1
   3  15  25 59.5247 8.37026  -2
   4  14  26 59.5247 8.37026   1
   2  10  28 28.8297 3.91795  -2
   4  14  26 28.8297 3.91795   1
   5  17  25 11.1700 6.33484  -2
   6  14  26 11.1700 6.33484   1
  10  18  22 1.83345 2.65212  -2
   6  14  26 1.83345 2.65212   1
   6  14  26 0.18283 3.07823  -2
   6  14  26 0.18283 3.07823   1
   3   9  29 24.0892 8.06728  -2
   6  14  26 24.0892 8.06728   1
   6  18  24 55.6783 4.65707  -2
   8  14  26 55.6783 4.65707   1
   5   7  29 219.092 15.0189  -2
   8  14  26 219.092 15.0189   1
   5  13  27 16.2474 10.0798  -2
   8  14  26 16.2474 10.0798   1
  11  17  23 55.2804 9.32986  -2
   8  14  26 55.2804 9.32986   1
  11  15  25 308.004 12.9226  -2
  10  14  26 308.004 12.9226   1
   7  19  23 194.561 8.99947  -2
  10  14  26 194.561 8.99947   1
   5  11  29 204.755 13.4089  -2
  10  14  26 204.755 13.4089   1
   6   6  30 429.864 12.6961  -2
  10  14  26 429.864 12.6961   1
  12  14  26 421.079 11.6921  -2
  12  14  26 421.079 11.6921   1
   9  21  23 305.462 10.2994  -2
  12  14  26 305.462 10.2994   1
   4  10  30 312.950 9.88699  -2
  12  14  26 312.950 9.88699   1
   5   7  31 434.022 20.1289  -2
  12  14  26 434.022 20.1289   1
  10  22  22 193.044 7.91278  -2
  14  14  26 193.044 7.91278   1
   3   9  31 210.037 15.6275  -2
  14  14  26 210.037 15.6275   1
  13  13  27 217.903 13.6472  -2
  14  14  26 217.903 13.6472   1
   2  12  28 74.1552 4.86928  -2
   0  16  26 74.1552 4.86928   1
   7  19  23 68.9003 10.6624  -2
   0  16  26 68.9003 10.6624   1
   1  11  29 20.6832 7.85824  -2
   2  16  26 20.6832 7.85824   1
   6  18  24 42.5814 4.62016  -2
   2  16  26 42.5814 4.62016   1
   7  21  21 29.1444 9.09201  -2
   2  16  26 29.1444 9.09201   1
   3  13  27 22.8279 8.04290  -2
   2  16  26 22.8279 8.04290   1
   5  17  25 27.4791 8.26671  -2
   4  16  26 27.4791 8.26671   1
   5  15  27 38.4953 7.64585  -2
   4  16  26 38.4953 7.64585   1
   1   9  29 6.51026 5.13160  -2
   4  16  26 6.51026 5.13160   1
   8  20  22 2.96067 3.27579  -2
   4  16  26 2.96067 3.27579   1
   6  16  26 62.4277 4.83108  -2
   6  16  26 62.4277 4.83108   1
   9  19  23 34.8561 8.88859  -2
   6  16  26 34.8561 8.88859   1
   2   8  30 75.8862 5.15725  -2
   6  16  26 75.8862 5.15725   1
   5  15  27 79.8940 10.1513  -2
   6  16  26 79.8940 10.1513   1
   4  14  28 29.0143 4.10776  -2
   8  16  26 29.0143 4.10776   1
   9  17  25 -14.264 8.26143  -2
   8  16  26 -14.264 8.26143   1
   7  17  25 7.26332 6.56896  -2
   8  16  26 7.26332 6.56896   1
   3   7  31 82.3353 9.54333  -2
   8  16  26 82.3353 9.54333   1
  10  16  26 38.7709 3.48731  -2
  10  16  26 38.7709 3.48731   1
   9  19  25 25.9905 7.02810  -2
  10  16  26 25.9905 7.02810   1
   3  13  29 29.4013 10.9545  -2
  10  16  26 29.4013 10.9545   1
   5   5  31 207.193 13.1926  -2
  10  16  26 207.193 13.1926   1
   3  11  31 93.6769 8.57931  -2
  12  16  26 93.6769 8.57931   1
  11  15  27 96.1072 7.49121  -2
  12  16  26 96.1072 7.49121   1
  10  20  24 97.9442 5.64018  -2
  12  16  26 97.9442 5.64018   1
   4   6  32 168.741 7.95446  -2
  12  16  26 168.741 7.95446   1
   3   7  33 62.1715 9.48941  -2
  14  16  26 62.1715 9.48941   1
  11  13  29 33.6368 7.36702  -2
  14  16  26 33.6368 7.36702   1
  11  21  23 82.9062 5.91034  -2
  14  16  26 82.9062 5.91034   1
   2  10  32 24.7394 3.66204  -2
  14  16  26 24.7394 3.66204   1
   1   9  33 6.83243 6.66742  -2
  16  16  26 6.83243 6.66742   1
  12  12  30 1.96270 4.55490  -2
  16  16  26 1.96270 4.55490   1
  13  23  23 128.258 9.95954  -2
  16  16  26 128.258 9.95954   1
   3  11  29 22.5090 9.96760  -2
   0  18  26 22.5090 9.96760   1
   5  21  23 21.1505 9.52540  -2
   0  18  26 21.1505 9.52540   1
   6  22  22 13.6162 3.03519  -2
   2  18  26 13.6162 3.03519   1
   5  19  25 13.5272 8.99701  -2
   2  18  26 13.5272 8.99701   1
   5  13  29 57.7638 8.00839  -2
   2  18  26 57.7638 8.00839   1
   2  10  30 2.45875 3.19952  -2
   2  18  26 2.45875 3.19952   1
   4  18  26 62.4346 5.26681  -2
   4  18  26 62.4346 5.26681   1
   1   9  31 52.3385 7.08221  -2
   4  18  26 52.3385 7.08221   1
   7  21  23 43.0498 8.33247  -2
   4  18  26 43.0498 8.33247   1
   6  14  28 86.4977 5.45821  -2
   4  18  26 86.4977 5.45821   1
   3  17  27 142.807 11.3887  -2
   6  18  26 142.807 11.3887   1
   7  15  27 118.377 7.90121  -2
   6  18  26 118.377 7.90121   1
   7  19  25 113.289 10.6771  -2
   6  18  26 113.289 10.6771   1
   1   7  31 125.125 8.61345  -2
   6  18  26 125.125 8.61345   1
   9  17  27 52.4426 8.40509  -2
   8  18  26 52.4426 8.40509   1
   8  18  26 56.2310 4.90044  -2
   8  18  26 56.2310 4.90044   1
   3  15  29 85.6099 9.75885  -2
   8  18  26 85.6099 9.75885   1
   2   6  32 64.0617 4.28596  -2
   8  18  26 64.0617 4.28596   1
   9  17  27 -1.1546 7.89142  -2
  10  18  26 -1.1546 7.89142   1
   3   5  33 12.0621 7.33167  -2
  10  18  26 12.0621 7.33167   1
   2  14  30 21.4890 4.17495  -2
  10  18  26 21.4890 4.17495   1
  10  18  26 -0.0991 3.48953  -2
  10  18  26 -0.0991 3.48953   1
  11  19  25 20.0155 7.12431  -2
  12  18  26 20.0155 7.12431   1
   1  13  31 18.8145 7.67459  -2
  12  18  26 18.8145 7.67459   1
   3   5  33 19.4720 6.98841  -2
  12  18  26 19.4720 6.98841   1
   9  15  29 37.5590 8.78837  -2
  12  18  26 37.5590 8.78837   1
   2   6  34 14.6042 3.83383  -2
  14  18  26 14.6042 3.83383   1
  13  21  25 55.8874 7.49555  -2
  14  18  26 55.8874 7.49555   1
  10  14  30 10.6438 3.61032  -2
  14  18  26 10.6438 3.61032   1
   1  11  33 35.2286 7.63090  -2
  14  18  26 35.2286 7.63090   1
  11  13  31 7.92916 7.64386  -2
  16  18  26 7.92916 7.64386   1
   1   7  35 31.2852 8.85787  -2
  16  18  26 31.2852 8.85787   1
  14  22  24 89.0362 5.25605  -2
  16  18  26 89.0362 5.25605   1
   0  10  34 84.8967 5.56361  -2
  16  18  26 84.8967 5.56361   1
   1   9  35 86.2266 8.44428  -2
  18  18  26 86.2266 8.44428   1
  15  23  23 82.6539 10.4511  -2
  18  18  26 82.6539 10.4511   1
  11  11  33 13.0776 13.7038  -2
  18  18  26 13.0776 13.7038   1
   4  22  24 78.7473 4.61986  -2
   0  20  26 78.7473 4.61986   1
   5  11  31 68.6348 8.79953  -2
   0  20  26 68.6348 8.79953   1
   6  12  30 45.3264 5.41609  -2
   2  20  26 45.3264 5.41609   1
   3   9  31 33.8778 8.91762  -2
   2  20  26 33.8778 8.91762   1
   5  23  23 28.0832 10.9488  -2
   2  20  26 28.0832 10.9488   1
   3  21  25 30.3170 10.4191  -2
   2  20  26 30.3170 10.4191   1
   7  13  29 23.9816 8.37190  -2
   4  20  26 23.9816 8.37190   1
   2   8  32 8.05012 4.47784  -2
   4  20  26 8.05012 4.47784   1
   5  21  25 -2.4354 9.19512  -2
   4  20  26 -2.4354 9.19512   1
   3  19  27 9.65143 9.93030  -2
   4  20  26 9.65143 9.93030   1
   6  20  26 41.7530 3.73190  -2
   6  20  26 41.7530 3.73190   1
   9  15  29 55.2408 8.88426  -2
   6  20  26 55.2408 8.88426   1
   1   7  33 15.2578 8.14095  -2
   6  20  26 15.2578 8.14095   1
   2  18  28 60.9393 5.60059  -2
   6  20  26 60.9393 5.60059   1
   7  19  27 46.3369 9.19074  -2
   8  20  26 46.3369 9.19074   1
   1   5  33 4.36610 6.06337  -2
   8  20  26 4.36610 6.06337   1
  10  16  28 11.8329 4.57935  -2
   8  20  26 11.8329 4.57935   1
   1  17  29 46.5792 15.3842  -2
   8  20  26 46.5792 15.3842   1
   1  15  31 -2.1312 10.3532  -2
  10  20  26 -2.1312 10.3532   1
   7  17  29 133.119 11.0247  -2
  10  20  26 133.119 11.0247   1
  11  17  27 4.52124 8.32978  -2
  10  20  26 4.52124 8.32978   1
   2   4  34 9.73276 3.56392  -2
  10  20  26 9.73276 3.56392   1
  13  19  27 34.3252 7.55003  -2
  12  20  26 34.3252 7.55003   1
   3   3  35 63.2419 6.80718  -2
  12  20  26 63.2419 6.80718   1
   8  16  30 108.478 5.52347  -2
  12  20  26 108.478 5.52347   1
   0  14  32 36.0533 4.56982  -2
  12  20  26 36.0533 4.56982   1
   1   5  35 31.2770 7.32235  -2
  14  20  26 31.2770 7.32235   1
   1  13  33 60.6804 9.31693  -2
  14  20  26 60.6804 9.31693   1
  14  20  26 13.8784 4.13631  -2
  14  20  26 13.8784 4.13631   1
   9  15  31 15.7316 7.57785  -2
  14  20  26 15.7316 7.57785   1
  15  21  25 10.1666 6.01704  -2
  16  20  26 10.1666 6.01704   1
   0   6  36 42.4193 4.93418  -2
  16  20  26 42.4193 4.93418   1
   1  11  35 124.027 9.32389  -2
  16  20  26 124.027 9.32389   1
   9  13  33 15.7234 11.1598  -2
  16  20  26 15.7234 11.1598   1
  17  23  25 20.9163 6.81405  -2
  18  20  26 20.9163 6.81405   1
   1   7  37 20.1505 9.80008  -2
  18  20  26 20.1505 9.80008   1
   2  10  36 101.811 6.15598  -2
  18  20  26 101.811 6.15598   1
  10  12  34 49.2580 5.03282  -2
  18  20  26 49.2580 5.03282   1
  18  24  24 1.97671 5.59032  -2
  20  20  26 1.97671 5.59032   1
  11  11  35 101.661 15.8593  -2
  20  20  26 101.661 15.8593   1
   3   9  37 22.6194 8.41460  -2
  20  20  26 22.6194 8.41460   1
   6  10  32 183.517 8.55391  -2
   0  22  26 183.517 8.55391   1
   3  23  25 202.216 13.9310  -2
   0  22  26 202.216 13.9310   1
   7  11  31 131.345 9.84962  -2
   2  22  26 131.345 9.84962   1
   3  23  25 169.984 12.2833  -2
   2  22  26 169.984 12.2833   1
   5   9  33 102.568 9.45096  -2
   2  22  26 102.568 9.45096   1
   2  22  26 135.107 6.72272  -2
   2  22  26 135.107 6.72272   1
   3   7  33 38.9625 8.69692  -2
   4  22  26 38.9625 8.69692   1
   1  21  27 12.5491 10.0721  -2
   4  22  26 12.5491 10.0721   1
   9  13  31 7.27312 8.62172  -2
   4  22  26 7.27312 8.62172   1
   4  22  26 23.6288 5.30575  -2
   4  22  26 23.6288 5.30575   1
   5  21  27 6.59898 9.85779  -2
   6  22  26 6.59898 9.85779   1
   2   6  34 2.48428 4.00451  -2
   6  22  26 2.48428 4.00451   1
  10  14  30 7.59033 4.93307  -2
   6  22  26 7.59033 4.93307   1
   1  19  29 29.5075 8.66347  -2
   6  22  26 29.5075 8.66347   1
   1   5  35 6.80091 8.38239  -2
   8  22  26 6.80091 8.38239   1
  11  15  29 6.97371 8.60290  -2
   8  22  26 6.97371 8.60290   1
   0  18  30 35.9229 4.56357  -2
   8  22  26 35.9229 4.56357   1
   5  19  29 136.365 10.3059  -2
   8  22  26 136.365 10.3059   1
   6  18  30 187.365 7.71420  -2
  10  22  26 187.365 7.71420   1
  13  17  29 94.5290 9.81512  -2
  10  22  26 94.5290 9.81512   1
   1   3  35 114.072 9.43696  -2
  10  22  26 114.072 9.43696   1
   1  17  31 76.4235 9.99712  -2
  10  22  26 76.4235 9.99712   1
  14  18  28 120.348 6.25501  -2
  12  22  26 120.348 6.25501   1
   7  17  31 201.183 12.0777  -2
  12  22  26 201.183 12.0777   1
   2   2  36 192.772 7.22861  -2
  12  22  26 192.772 7.22861   1
   1  15  33 131.793 10.4963  -2
  12  22  26 131.793 10.4963   1
   1   3  37 98.1714 9.00370  -2
  14  22  26 98.1714 9.00370   1
   7  15  33 43.3484 10.2451  -2
  14  22  26 43.3484 10.2451   1
  15  19  27 59.3638 8.08872  -2
  14  22  26 59.3638 8.08872   1
   2  14  34 106.512 6.39569  -2
  14  22  26 106.512 6.39569   1
   8  14  34 18.0338 4.42358  -2
  16  22  26 18.0338 4.42358   1
   1   5  37 27.2823 8.79743  -2
  16  22  26 27.2823 8.79743   1
  17  21  27 15.2564 8.24489  -2
  16  22  26 15.2564 8.24489   1
   3  13  35 60.7175 10.4398  -2
  16  22  26 60.7175 10.4398   1
  18  22  26 -6.9668 4.23286  -2
  18  22  26 -6.9668 4.23286   1
   9  13  35 33.0446 11.0956  -2
  18  22  26 33.0446 11.0956   1
   2   6  38 -1.2186 4.33556  -2
  18  22  26 -1.2186 4.33556   1
   7   9  33 243.748 11.7152  -2
   0  24  26 243.748 11.7152   1
   1  25  25 322.294 15.8143  -2
   0  24  26 322.294 15.8143   1
   9  11  33 151.558 10.3896  -2
   2  24  26 151.558 10.3896   1
   2  24  26 235.535 10.0895  -2
   2  24  26 235.535 10.0895   1
   6   8  34 169.253 8.43628  -2
   2  24  26 169.253 8.43628   1
   1  23  27 192.559 13.7289  -2
   2  24  26 192.559 13.7289   1
   5   7  35 40.2513 9.09594  -2
   4  24  26 40.2513 9.09594   1
   3  23  27 91.1406 11.4964  -2
   4  24  26 91.1406 11.4964   1
  10  12  32 37.7193 5.44016  -2
   4  24  26 37.7193 5.44016   1
   0  22  28 49.0686 6.49464  -2
   4  24  26 49.0686 6.49464   1
  11  13  31 4.68574 8.86525  -2
   6  24  26 4.68574 8.86525   1
   1  21  29 0.77957 10.2861  -2
   6  24  26 0.77957 10.2861   1
   3  21  29 35.9779 10.1410  -2
   6  24  26 35.9779 10.1410   1
   3   5  35 16.6577 10.5928  -2
   6  24  26 16.6577 10.5928   1
   4  20  30 99.1622 7.29397  -2
   8  24  26 99.1622 7.29397   1
   1  19  31 45.5832 10.3946  -2
   8  24  26 45.5832 10.3946   1
   2   4  36 57.9899 5.92576  -2
   8  24  26 57.9899 5.92576   1
  13  15  31 12.9514 9.26353  -2
   8  24  26 12.9514 9.26353   1
   1   3  37 154.589 9.81947  -2
  10  24  26 154.589 9.81947   1
   5  19  31 215.396 12.6565  -2
  10  24  26 215.396 12.6565   1
  14  16  30 115.383 7.54065  -2
  10  24  26 115.383 7.54065   1
   2  18  32 116.212 6.55285  -2
  10  24  26 116.212 6.55285   1
   3  17  33 149.256 10.4186  -2
  12  24  26 149.256 10.4186   1
  15  17  29 217.695 11.8634  -2
  12  24  26 217.695 11.8634   1
   1   1  37 218.420 10.8582  -2
  12  24  26 218.420 10.8582   1
   5  17  33 188.845 11.6793  -2
  12  24  26 188.845 11.6793   1
   0   2  38 121.938 6.43404  -2
  14  24  26 121.938 6.43404   1
   3  15  35 113.359 10.3539  -2
  14  24  26 113.359 10.3539   1
   6  16  34 79.9498 6.00758  -2
  14  24  26 79.9498 6.00758   1
   9   9  35 148.123 15.0385  -2
   0  26  26 148.123 15.0385   1
   0  26  26 194.194 13.1462  -2
   0  26  26 194.194 13.1462   1
   1  25  27 157.828 12.6276  -2
   2  26  26 157.828 12.6276   1
  10  10  34 101.540 10.2722  -2
   2  26  26 101.540 10.2722   1
   7   7  35 91.1122 14.2620  -2
   2  26  26 91.1122 14.2620   1
   6   6  36 21.3961 7.87610  -2
   4  26  26 21.3961 7.87610   1
   1  23  29 19.2466 11.4602  -2
   4  26  26 19.2466 11.4602   1
  11  11  33 33.1628 13.4300  -2
   4  26  26 33.1628 13.4300   1
   2  22  30 11.2417 5.56441  -2
   6  26  26 11.2417 5.56441   1
  13  13  33 59.2866 13.8448  -2
   6  26  26 59.2866 13.8448   1
   5   5  37 -6.9256 13.6410  -2
   6  26  26 -6.9256 13.6410   1
   3  21  31 52.4138 10.7818  -2
   8  26  26 52.4138 10.7818   1
   3   3  37 27.7587 11.5389  -2
   8  26  26 27.7587 11.5389   1
  14  14  32 17.6170 7.44701  -2
   8  26  26 17.6170 7.44701   1
   3  19  33 70.4431 10.3167  -2
  10  26  26 70.4431 10.3167   1
  15  15  31 26.7091 14.2737  -2
  10  26  26 26.7091 14.2737   1
   2   2  38 70.8942 7.92739  -2
  10  26  26 70.8942 7.92739   1
   9  17  19 608.718 12.9864  -2
   1   1  27 608.718 12.9864   1
  10  18  18 543.026 22.8331  -2
   1   1  27 543.026 22.8331   1
   8  18  18 770.424 27.6091  -2
   1   1  27 770.424 27.6091   1
   8  16  20 162.130 9.74436  -2
   1   3  27 162.130 9.74436   1
   6  18  20 368.164 10.1216  -2
   1   3  27 368.164 10.1216   1
  10  16  20 94.0139 7.90043  -2
   1   3  27 94.0139 7.90043   1
  12  16  18 93.3664 14.3311  -2
   1   3  27 93.3664 14.3311   1
  13  17  17 57.1405 4.22735  -2
   3   3  27 57.1405 4.22735   1
   9  15  21 3.49220 3.27725  -2
   3   3  27 3.49220 3.27725   1
   5  19  19 371.615 12.8791  -2
   3   3  27 371.615 12.8791   1
   6  16  22 23.8331 6.82396  -2
   1   5  27 23.8331 6.82396   1
  13  15  19 3.63781 3.03364  -2
   1   5  27 3.63781 3.03364   1
  12  14  20 9.60114 9.94270  -2
   1   5  27 9.60114 9.94270   1
   5  17  21 124.949 6.03970  -2
   1   5  27 124.949 6.03970   1
  10  14  22 145.669 9.41931  -2
   3   5  27 145.669 9.41931   1
   8  14  22 92.9312 9.85442  -2
   3   5  27 92.9312 9.85442   1
  14  16  18 130.212 7.21986  -2
   3   5  27 130.212 7.21986   1
   4  18  20 269.274 8.46855  -2
   3   5  27 269.274 8.46855   1
   9  13  23 368.208 10.9711  -2
   5   5  27 368.208 10.9711   1
  16  16  16 287.561 25.1633  -2
   5   5  27 287.561 25.1633   1
   2  20  20 236.835 11.2018  -2
   5   5  27 236.835 11.2018   1
   5  15  23 9.26843 3.58894  -2
   1   7  27 9.26843 3.58894   1
  14  14  20 -2.3012 13.3928  -2
   1   7  27 -2.3012 13.3928   1
  13  13  21 101.001 5.52948  -2
   1   7  27 101.001 5.52948   1
   4  16  22 17.1795 9.04648  -2
   1   7  27 17.1795 9.04648   1
   6  14  24 70.8967 6.71109  -2
   3   7  27 70.8967 6.71109   1
  14  16  18 124.624 13.0222  -2
   3   7  27 124.624 13.0222   1
   2  18  22 46.4747 6.16456  -2
   3   7  27 46.4747 6.16456   1
  12  12  22 311.630 15.2929  -2
   3   7  27 311.630 15.2929   1
  10  12  24 523.303 16.9423  -2
   5   7  27 523.303 16.9423   1
   1  19  21 194.636 6.25023  -2
   5   7  27 194.636 6.25023   1
  15  17  17 276.004 7.21607  -2
   5   7  27 276.004 7.21607   1
   8  12  24 302.201 18.2808  -2
   5   7  27 302.201 18.2808   1
  16  16  18 272.631 20.8597  -2
   7   7  27 272.631 20.8597   1
   9  11  25 328.456 10.5531  -2
   7   7  27 328.456 10.5531   1
   0  20  20 170.483 9.00024  -2
   7   7  27 170.483 9.00024   1
  12  14  22 221.403 13.6920  -2
   1   9  27 221.403 13.6920   1
   2  16  24 96.9230 8.44763  -2
   1   9  27 96.9230 8.44763   1
   4  14  24 158.726 9.61903  -2
   1   9  27 158.726 9.61903   1
  12  16  20 92.5137 14.8969  -2
   1   9  27 92.5137 14.8969   1
  13  17  19 47.2662 4.00710  -2
   3   9  27 47.2662 4.00710   1
  11  13  23 315.569 9.73980  -2
   3   9  27 315.569 9.73980   1
   5  13  25 53.7078 4.04975  -2
   3   9  27 53.7078 4.04975   1
   1  17  23 11.9727 3.48456  -2
   3   9  27 11.9727 3.48456   1
   6  12  26 69.2904 11.1912  -2
   5   9  27 69.2904 11.1912   1
   0  18  22 39.8969 5.37777  -2
   5   9  27 39.8969 5.37777   1
  10  12  24 350.357 13.3295  -2
   5   9  27 350.357 13.3295   1
  14  18  18 153.481 13.0679  -2
   5   9  27 153.481 13.0679   1
   8  10  26 56.2503 13.5554  -2
   7   9  27 56.2503 13.5554   1
   2  20  22 38.7468 4.80685  -2
   7   9  27 38.7468 4.80685   1
  10  10  26 133.831 13.3780  -2
   7   9  27 133.831 13.3780   1
  14  16  20 23.4347 8.55574  -2
   7   9  27 23.4347 8.55574   1
   3  21  21 -3.1658 5.40107  -2
   9   9  27 -3.1658 5.40107   1
  15  15  21 5.54339 3.12062  -2
   9   9  27 5.54339 3.12062   1
   9   9  27 1.21084 4.18153  -2
   9   9  27 1.21084 4.18153   1
   2  14  26 265.823 11.0923  -2
   1  11  27 265.823 11.0923   1
  11  17  21 165.676 7.05262  -2
   1  11  27 165.676 7.05262   1
   1  15  25 300.771 10.2267  -2
   1  11  27 300.771 10.2267   1
  10  16  22 154.883 15.7738  -2
   1  11  27 154.883 15.7738   1
  10  14  24 222.084 13.9897  -2
   3  11  27 222.084 13.9897   1
  12  18  20 53.3934 13.0125  -2
   3  11  27 53.3934 13.0125   1
   4  12  26 57.7122 7.91380  -2
   3  11  27 57.7122 7.91380   1
   0  16  24 108.936 9.04117  -2
   3  11  27 108.936 9.04117   1
   9  13  25 155.924 6.61945  -2
   5  11  27 155.924 6.61945   1
  12  18  20 25.9232 8.29079  -2
   5  11  27 25.9232 8.29079   1
   2  18  24 16.5511 5.45705  -2
   5  11  27 16.5511 5.45705   1
   5  11  27 -7.0769 4.74269  -2
   5  11  27 -7.0769 4.74269   1
   3  19  23 3.18419 2.75238  -2
   7  11  27 3.18419 2.75238   1
   8  12  26 53.2583 10.5357  -2
   7  11  27 53.2583 10.5357   1
  13  17  21 3.01887 3.54710  -2
   7  11  27 3.01887 3.54710   1
   6  10  28 28.8023 11.7855  -2
   7  11  27 28.8023 11.7855   1
   4  20  22 66.7154 5.88156  -2
   9  11  27 66.7154 5.88156   1
   8  10  28 56.0788 11.3339  -2
   9  11  27 56.0788 11.3339   1
  14  16  22 60.2244 7.19549  -2
   9  11  27 60.2244 7.19549   1
   8   8  28 126.225 13.8566  -2
   9  11  27 126.225 13.8566   1
   7   9  29 277.298 9.83763  -2
  11  11  27 277.298 9.83763   1
  14  14  24 381.574 20.3615  -2
  11  11  27 381.574 20.3615   1
   6  22  22 230.582 14.4412  -2
  11  11  27 230.582 14.4412   1
   0  14  26 262.044 11.3526  -2
   1  13  27 262.044 11.3526   1
   9  17  23 143.108 6.36327  -2
   1  13  27 143.108 6.36327   1
   1  13  27 182.815 8.06949  -2
   1  13  27 182.815 8.06949   1
  10  18  22 141.335 11.2434  -2
   1  13  27 141.335 11.2434   1
   2  12  28 39.4245 6.77948  -2
   3  13  27 39.4245 6.77948   1
  10  20  20 17.2365 8.09677  -2
   3  13  27 17.2365 8.09677   1
   2  16  26 17.2131 7.92102  -2
   3  13  27 17.2131 7.92102   1
   8  16  24 41.8618 12.6879  -2
   3  13  27 41.8618 12.6879   1
   3  17  25 7.19886 3.06714  -2
   5  13  27 7.19886 3.06714   1
   4  10  28 11.9505 9.72553  -2
   5  13  27 11.9505 9.72553   1
  11  19  21 7.36641 2.79386  -2
   5  13  27 7.36641 2.79386   1
   8  14  26 12.8591 9.86979  -2
   5  13  27 12.8591 9.86979   1
  12  18  22 1.95953 8.61217  -2
   7  13  27 1.95953 8.61217   1
   4  18  24 2.41977 6.43294  -2
   7  13  27 2.41977 6.43294   1
   7  13  27 1.53680 3.08746  -2
   7  13  27 1.53680 3.08746   1
   5   9  29 89.1569 7.12045  -2
   7  13  27 89.1569 7.12045   1
   6  20  24 57.8384 6.13483  -2
   9  13  27 57.8384 6.13483   1
   6   8  30 236.561 14.9760  -2
   9  13  27 236.561 14.9760   1
   6  12  28 85.7333 10.8684  -2
   9  13  27 85.7333 10.8684   1
  12  16  24 133.844 10.7158  -2
   9  13  27 133.844 10.7158   1
   7  21  23 178.389 6.17103  -2
  11  13  27 178.389 6.17103   1
  13  15  25 278.375 8.32106  -2
  11  13  27 278.375 8.32106   1
   6  10  30 258.452 14.9216  -2
  11  13  27 258.452 14.9216   1
   6   8  30 351.792 17.1067  -2
  11  13  27 351.792 17.1067   1
   8  22  22 129.853 7.40439  -2
  13  13  27 129.853 7.40439   1
   5   9  31 230.697 9.23339  -2
  13  13  27 230.697 9.23339   1
  14  14  26 222.244 16.5288  -2
  13  13  27 222.244 16.5288   1
   0  12  28 38.8758 9.15256  -2
   1  15  27 38.8758 9.15256   1
   8  20  22 12.2753 8.32177  -2
   1  15  27 12.2753 8.32177   1
   8  18  24 20.9248 9.19599  -2
   1  15  27 20.9248 9.19599   1
   2  14  28 21.4678 8.05824  -2
   1  15  27 21.4678 8.05824   1
   3  15  27 0.64764 3.24916  -2
   3  15  27 0.64764 3.24916   1
   1  11  29 5.59986 4.18598  -2
   3  15  27 5.59986 4.18598   1
   7  17  25 19.3323 3.98887  -2
   3  15  27 19.3323 3.98887   1
   9  21  21 3.04626 3.41954  -2
   3  15  27 3.04626 3.41954   1
   4  16  26 59.1218 8.07161  -2
   5  15  27 59.1218 8.07161   1
   2  10  30 54.8928 6.87481  -2
   5  15  27 54.8928 6.87481   1
   6  16  26 59.5491 10.4355  -2
   5  15  27 59.5491 10.4355   1
  10  20  22 48.8726 11.6509  -2
   5  15  27 48.8726 11.6509   1
   6  18  26 64.1457 7.17575  -2
   7  15  27 64.1457 7.17575   1
   6  14  28 43.7655 8.92606  -2
   7  15  27 43.7655 8.92606   1
   4   8  30 150.764 9.53647  -2
   7  15  27 150.764 9.53647   1
  10  18  24 22.0761 8.62996  -2
   7  15  27 22.0761 8.62996   1
   5  13  29 45.4528 4.47646  -2
   9  15  27 45.4528 4.47646   1
  11  17  25 39.0630 4.38548  -2
   9  15  27 39.0630 4.38548   1
   5   7  31 168.202 8.96474  -2
   9  15  27 168.202 8.96474   1
   7  19  25 11.0132 3.75540  -2
   9  15  27 11.0132 3.75540   1
   4  12  30 75.8494 8.44017  -2
  11  15  27 75.8494 8.44017   1
   6   6  32 160.329 12.5821  -2
  11  15  27 160.329 12.5821   1
   8  20  24 35.0520 6.96880  -2
  11  15  27 35.0520 6.96880   1
  12  16  26 53.7268 8.13540  -2
  11  15  27 53.7268 8.13540   1
   4   8  32 98.4456 10.6257  -2
  13  15  27 98.4456 10.6257   1
   4  10  32 45.8996 10.3169  -2
  13  15  27 45.8996 10.3169   1
  10  22  24 73.9914 7.17505  -2
  13  15  27 73.9914 7.17505   1
  12  14  28 37.7717 7.80420  -2
  13  15  27 37.7717 7.80420   1
  11  23  23 109.624 7.13156  -2
  15  15  27 109.624 7.13156   1
  13  13  29 4.07502 4.63738  -2
  15  15  27 4.07502 4.63738   1
   3   9  33 2.12304 3.12739  -2
  15  15  27 2.12304 3.12739   1
   6  20  24 -4.6321 9.39622  -2
   1  17  27 -4.6321 9.39622   1
   3  13  29 17.6528 3.89167  -2
   1  17  27 17.6528 3.89167   1
   2  12  30 13.8983 6.64997  -2
   1  17  27 13.8983 6.64997   1
   7  21  23 8.74681 3.48595  -2
   1  17  27 8.74681 3.48595   1
   4  14  28 79.3217 8.53426  -2
   3  17  27 79.3217 8.53426   1
   8  22  22 59.2836 8.94080  -2
   3  17  27 59.2836 8.94080   1
   0  10  30 52.5972 6.18225  -2
   3  17  27 52.5972 6.18225   1
   6  18  26 126.827 11.5906  -2
   3  17  27 126.827 11.5906   1
   5  17  27 252.738 8.61493  -2
   5  17  27 252.738 8.61493   1
   1   9  31 179.904 8.20022  -2
   5  17  27 179.904 8.20022   1
   6  16  28 282.387 11.4042  -2
   5  17  27 282.387 11.4042   1
   8  20  24 170.369 12.1688  -2
   5  17  27 170.369 12.1688   1
   9  19  25 126.747 6.46656  -2
   7  17  27 126.747 6.46656   1
   7  17  27 203.734 7.59082  -2
   7  17  27 203.734 7.59082   1
   4  16  28 219.480 12.1801  -2
   7  17  27 219.480 12.1801   1
   2   8  32 140.924 10.3176  -2
   7  17  27 140.924 10.3176   1
  10  18  26 12.2634 7.95903  -2
   9  17  27 12.2634 7.95903   1
   8  18  26 42.3765 7.23722  -2
   9  17  27 42.3765 7.23722   1
   4  14  30 85.0736 9.06643  -2
   9  17  27 85.0736 9.06643   1
   4   6  32 129.690 9.58026  -2
   9  17  27 129.690 9.58026   1
   3  13  31 15.5350 3.82501  -2
  11  17  27 15.5350 3.82501   1
   5   5  33 33.5010 5.00829  -2
  11  17  27 33.5010 5.00829   1
  10  20  26 -1.8206 7.55962  -2
  11  17  27 -1.8206 7.55962   1
  10  16  28 -13.803 8.20978  -2
  11  17  27 -13.803 8.20978   1
  11  21  25 49.5422 4.95440  -2
  13  17  27 49.5422 4.95440   1
   4   6  34 -0.2880 8.99164  -2
  13  17  27 -0.2880 8.99164   1
  11  15  29 3.08379 3.12797  -2
  13  17  27 3.08379 3.12797   1
   2  12  32 -5.7863 7.33082  -2
  13  17  27 -5.7863 7.33082   1
   2  10  34 38.4462 9.20964  -2
  15  17  27 38.4462 9.20964   1
  12  22  24 130.174 6.55684  -2
  15  17  27 130.174 6.55684   1
   2   8  34 11.1983 9.05502  -2
  15  17  27 11.1983 9.05502   1
  12  14  30 8.41274 8.15998  -2
  15  17  27 8.41274 8.15998   1
   1   9  35 125.820 6.07762  -2
  17  17  27 125.820 6.07762   1
  14  24  24 137.895 10.4894  -2
  17  17  27 137.895 10.4894   1
  12  12  32 60.4336 12.1019  -2
  17  17  27 60.4336 12.1019   1
   4  12  30 31.9863 8.61644  -2
   1  19  27 31.9863 8.61644   1
   6  22  24 30.2626 8.26846  -2
   1  19  27 30.2626 8.26846   1
   3  11  31 6.48599 3.50475  -2
   1  19  27 6.48599 3.50475   1
   5  21  25 4.26853 3.40023  -2
   1  19  27 4.26853 3.40023   1
   6  22  24 51.3994 9.27418  -2
   3  19  27 51.3994 9.27418   1
   4  20  26 41.4334 8.77495  -2
   3  19  27 41.4334 8.77495   1
   6  14  30 120.468 9.20907  -2
   3  19  27 120.468 9.20907   1
   2  10  32 44.6614 6.56109  -2
   3  19  27 44.6614 6.56109   1
   0   8  32 123.251 7.15237  -2
   5  19  27 123.251 7.15237   1
   7  21  25 123.780 6.82267  -2
   5  19  27 123.780 6.82267   1
   4  18  28 271.340 14.5812  -2
   5  19  27 271.340 14.5812   1
   7  15  29 199.838 8.66095  -2
   5  19  27 199.838 8.66095   1
   8  16  28 147.991 9.96457  -2
   7  19  27 147.991 9.96457   1
   8  20  26 119.464 10.3796  -2
   7  19  27 119.464 10.3796   1
   1   7  33 103.392 5.40074  -2
   7  19  27 103.392 5.40074   1
   3  17  29 204.015 8.07314  -2
   7  19  27 204.015 8.07314   1
   8  18  28 81.6555 9.32785  -2
   9  19  27 81.6555 9.32785   1
  10  18  28 25.9750 8.35666  -2
   9  19  27 25.9750 8.35666   1
   2  16  30 70.4365 9.96250  -2
   9  19  27 70.4365 9.96250   1
   2   6  34 5.48172 5.82784  -2
   9  19  27 5.48172 5.82784   1
  11  19  27 -1.9298 3.56887  -2
  11  19  27 -1.9298 3.56887   1
   4   4  34 -6.3396 7.01758  -2
  11  19  27 -6.3396 7.01758   1
   9  17  29 53.1333 4.42918  -2
  11  19  27 53.1333 4.42918   1
   2  14  32 -5.6371 8.40195  -2
  11  19  27 -5.6371 8.40195   1
   3   5  35 9.02598 3.83684  -2
  13  19  27 9.02598 3.83684   1
  12  20  26 15.3034 7.36241  -2
  13  19  27 15.3034 7.36241   1
   1  13  33 40.3467 4.79719  -2
  13  19  27 40.3467 4.79719   1
  10  16  30 43.2556 8.36055  -2
  13  19  27 43.2556 8.36055   1
   2   6  36 24.3789 8.96042  -2
  15  19  27 24.3789 8.96042   1
  10  14  32 27.3795 7.92900  -2
  15  19  27 27.3795 7.92900   1
  14  22  26 33.3680 7.82465  -2
  15  19  27 33.3680 7.82465   1
   0  12  34 125.622 9.77915  -2
  15  19  27 125.622 9.77915   1
  15  23  25 106.449 5.49018  -2
  17  19  27 106.449 5.49018   1
   0  10  36 177.618 9.79078  -2
  17  19  27 177.618 9.79078   1
  11  13  33 79.9077 5.77478  -2
  17  19  27 79.9077 5.77478   1
   0   8  36 111.709 10.3379  -2
  17  19  27 111.709 10.3379   1
   1   9  37 117.757 6.43133  -2
  19  19  27 117.757 6.43133   1
  12  12  34 123.514 13.0482  -2
  19  19  27 123.514 13.0482   1
  16  24  24 107.408 11.0592  -2
  19  19  27 107.408 11.0592   1
   4  24  24 75.4407 10.6602  -2
   1  21  27 75.4407 10.6602   1
   4  10  32 19.4945 8.48867  -2
   1  21  27 19.4945 8.48867   1
   4  22  26 13.5710 10.9224  -2
   1  21  27 13.5710 10.9224   1
   6  12  32 19.7191 8.45258  -2
   1  21  27 19.7191 8.45258   1
   5  23  25 23.4183 3.97120  -2
   3  21  27 23.4183 3.97120   1
   3  21  27 -0.9455 4.71754  -2
   3  21  27 -0.9455 4.71754   1
   7  13  31 22.3983 5.70455  -2
   3  21  27 22.3983 5.70455   1
   3   9  33 -4.8107 4.77796  -2
   3  21  27 -4.8107 4.77796   1
   2   8  34 32.9335 7.49443  -2
   5  21  27 32.9335 7.49443   1
   8  14  30 51.2217 9.05018  -2
   5  21  27 51.2217 9.05018   1
   6  22  26 -0.3416 9.23081  -2
   5  21  27 -0.3416 9.23081   1
   2  20  28 26.9228 10.1995  -2
   5  21  27 26.9228 10.1995   1
   2  18  30 76.0619 11.4898  -2
   7  21  27 76.0619 11.4898   1
  10  16  30 27.6532 9.02106  -2
   7  21  27 27.6532 9.02106   1
   0   6  34 27.8992 8.84856  -2
   7  21  27 27.8992 8.84856   1
   6  20  28 73.8139 10.0591  -2
   7  21  27 73.8139 10.0591   1
   1  17  31 19.2141 4.28983  -2
   9  21  27 19.2141 4.28983   1
   1   5  35 25.7543 3.72071  -2
   9  21  27 25.7543 3.72071   1
  11  17  29 11.1392 4.92646  -2
   9  21  27 11.1392 4.92646   1
   7  19  29 92.6644 5.60288  -2
   9  21  27 92.6644 5.60288   1
   2   4  36 36.4736 7.80142  -2
  11  21  27 36.4736 7.80142   1
   0  16  32 6.35086 10.7876  -2
  11  21  27 6.35086 10.7876   1
   8  18  30 73.9927 10.1262  -2
  11  21  27 73.9927 10.1262   1
  12  18  28 14.7693 9.57438  -2
  11  21  27 14.7693 9.57438   1
  14  20  28 17.1712 7.69737  -2
  13  21  27 17.1712 7.69737   1
   8  16  32 21.1925 9.14685  -2
  13  21  27 21.1925 9.14685   1
   0  14  34 97.8704 9.69265  -2
  13  21  27 97.8704 9.69265   1
   2   4  36 45.6184 7.88046  -2
  13  21  27 45.6184 7.88046   1
   9  15  33 4.89428 3.36441  -2
  15  21  27 4.89428 3.36441   1
   1   5  37 23.0376 4.85174  -2
  15  21  27 23.0376 4.85174   1
   1  13  35 123.799 6.87158  -2
  15  21  27 123.799 6.87158   1
  15  21  27 -0.1319 3.97744  -2
  15  21  27 -0.1319 3.97744   1
   2  12  36 109.711 9.72927  -2
  17  21  27 109.711 9.72927   1
  10  14  34 39.7349 8.29852  -2
  17  21  27 39.7349 8.29852   1
   0   6  38 22.1511 10.9638  -2
  17  21  27 22.1511 10.9638   1
  16  22  26 21.3911 8.24448  -2
  17  21  27 21.3911 8.24448   1
   3  25  25 136.438 7.54045  -2
   1  23  27 136.438 7.54045   1
   6  10  34 91.4997 9.54982  -2
   1  23  27 91.4997 9.54982   1
   7  11  33 87.2963 6.89850  -2
   1  23  27 87.2963 6.89850   1
   2  24  26 163.681 13.5091  -2
   1  23  27 163.681 13.5091   1
   4  24  26 43.4750 10.8844  -2
   3  23  27 43.4750 10.8844   1
   8  12  32 27.3692 9.24283  -2
   3  23  27 27.3692 9.24283   1
   2  22  28 26.6656 10.3328  -2
   3  23  27 26.6656 10.3328   1
   4   8  34 19.5135 8.82768  -2
   3  23  27 19.5135 8.82768   1
   1  21  29 2.12405 3.90264  -2
   5  23  27 2.12405 3.90264   1
   4  22  28 5.90606 9.63078  -2
   5  23  27 5.90606 9.63078   1
  10  14  32 20.9971 8.96792  -2
   5  23  27 20.9971 8.96792   1
   3   7  35 5.62064 4.55901  -2
   5  23  27 5.62064 4.55901   1
   0  20  30 16.7482 10.0711  -2
   7  23  27 16.7482 10.0711   1
   5  21  29 50.7801 5.84161  -2
   7  23  27 50.7801 5.84161   1
  11  15  31 12.2146 4.81651  -2
   7  23  27 12.2146 4.81651   1
   2   6  36 10.2936 8.90970  -2
   7  23  27 10.2936 8.90970   1
  12  16  30 48.3165 9.61642  -2
   9  23  27 48.3165 9.61642   1
   6  20  30 94.4162 10.7226  -2
   9  23  27 94.4162 10.7226   1
   0  18  32 31.1970 8.89331  -2
   9  23  27 31.1970 8.89331   1
   0   4  36 68.6693 8.97494  -2
   9  23  27 68.6693 8.97494   1
   1   3  37 122.240 6.64338  -2
  11  23  27 122.240 6.64338   1
  14  18  30 109.019 10.4244  -2
  11  23  27 109.019 10.4244   1
   6  18  32 135.248 11.1185  -2
  11  23  27 135.248 11.1185   1
   1  17  33 68.3896 5.49859  -2
  11  23  27 68.3896 5.49859   1
   2   2  38 72.8003 8.61846  -2
  13  23  27 72.8003 8.61846   1
   7  17  33 81.5829 6.03173  -2
  13  23  27 81.5829 6.03173   1
  15  19  29 112.986 7.31835  -2
  13  23  27 112.986 7.31835   1
   2  16  34 75.1951 10.1992  -2
  13  23  27 75.1951 10.1992   1
  16  20  28 29.3407 10.6110  -2
  15  23  27 29.3407 10.6110   1
   8  16  34 16.5017 8.95104  -2
  15  23  27 16.5017 8.95104   1
   0   4  38 10.0593 10.6596  -2
  15  23  27 10.0593 10.6596   1
   1  25  27 129.542 8.41909  -2
   1  25  27 129.542 8.41909   1
   2  26  26 132.200 12.5260  -2
   1  25  27 132.200 12.5260   1
   7   9  35 79.1177 6.98058  -2
   1  25  27 79.1177 6.98058   1
   8  10  34 61.6998 9.77429  -2
   1  25  27 61.6998 9.77429   1
   2  24  28 30.5903 11.2650  -2
   3  25  27 30.5903 11.2650   1
   6   8  36 42.0356 9.35457  -2
   3  25  27 42.0356 9.35457   1
  10  12  34 90.5213 10.1965  -2
   3  25  27 90.5213 10.1965   1
   0  24  28 46.0399 11.6016  -2
   3  25  27 46.0399 11.6016   1
  11  13  33 17.0981 5.66177  -2
   5  25  27 17.0981 5.66177   1
   3  23  29 0.51352 5.38386  -2
   5  25  27 0.51352 5.38386   1
   0  22  30 0.06254 9.97862  -2
   5  25  27 0.06254 9.97862   1
   4   6  36 -17.309 10.4242  -2
   5  25  27 -17.309 10.4242   1
  12  14  32 -2.9485 9.32226  -2
   7  25  27 -2.9485 9.32226   1
   1  21  31 8.50727 5.38118  -2
   7  25  27 8.50727 5.38118   1
   3   5  37 10.1134 5.05878  -2
   7  25  27 10.1134 5.05878   1
   4  22  30 25.9899 10.9819  -2
   7  25  27 25.9899 10.9819   1
   2  20  32 36.9482 10.4509  -2
   9  25  27 36.9482 10.4509   1
   2   4  38 35.0060 8.29365  -2
   9  25  27 35.0060 8.29365   1
   4  20  32 54.4724 10.3978  -2
   9  25  27 54.4724 10.3978   1
  14  16  32 6.25902 9.70630  -2
   9  25  27 6.25902 9.70630   1
   2  18  34 49.8863 10.3467  -2
  11  25  27 49.8863 10.3467   1
  15  17  31 63.3574 6.77331  -2
  11  25  27 63.3574 6.77331   1
   5  19  33 95.0010 7.05351  -2
  11  25  27 95.0010 7.05351   1
   0   2  38 61.8599 8.84330  -2
  11  25  27 61.8599 8.84330   1
   0  26  28 23.8713 11.0421  -2
   1  27  27 23.8713 11.0421   1
   8   8  36 12.3232 13.1626  -2
   1  27  27 12.3232 13.1626   1
   1  25  29 10.4704 5.52807  -2
   3  27  27 10.4704 5.52807   1
  11  11  35 88.7864 10.4794  -2
   3  27  27 88.7864 10.4794   1
   7   7  37 -11.693 7.08236  -2
   3  27  27 -11.693 7.08236   1
   2  24  30 -1.8643 10.4131  -2
   5  27  27 -1.8643 10.4131   1
  12  12  34 67.2999 17.3496  -2
   5  27  27 67.2999 17.3496   1
   9  19  19 390.074 18.8744  -2
   0   0  28 390.074 18.8744   1
   8  18  20 223.803 6.73205  -2
   0   2  28 223.803 6.73205   1
  11  17  19 113.878 12.0556  -2
   0   2  28 113.878 12.0556   1
   9  17  21 42.5671 7.31721  -2
   2   2  28 42.5671 7.31721   1
  12  18  18 80.8558 5.47823  -2
   2   2  28 80.8558 5.47823   1
   7  19  19 306.929 13.6303  -2
   2   2  28 306.929 13.6303   1
   7  17  21 124.679 7.80274  -2
   0   4  28 124.679 7.80274   1
  12  16  20 3.60217 3.28780  -2
   0   4  28 3.60217 3.28780   1
   5  19  21 205.646 7.48496  -2
   2   4  28 205.646 7.48496   1
   8  16  22 68.7520 4.04512  -2
   2   4  28 68.7520 4.04512   1
  13  17  19 106.880 7.97535  -2
   2   4  28 106.880 7.97535   1
  11  15  21 62.5048 8.31376  -2
   2   4  28 62.5048 8.31376   1
   9  15  23 227.520 9.42248  -2
   4   4  28 227.520 9.42248   1
   4  20  20 340.846 12.1205  -2
   4   4  28 340.846 12.1205   1
  15  17  17 271.626 12.9256  -2
   4   4  28 271.626 12.9256   1
   5  17  23 37.8390 6.89742  -2
   0   6  28 37.8390 6.89742   1
  13  15  21 50.7832 8.84670  -2
   0   6  28 50.7832 8.84670   1
   7  15  23 88.5256 7.57787  -2
   2   6  28 88.5256 7.57787   1
  12  14  22 236.039 7.90654  -2
   2   6  28 236.039 7.90654   1
  15  15  19 123.516 11.9675  -2
   2   6  28 123.516 11.9675   1
   4  18  22 148.208 6.18610  -2
   2   6  28 148.208 6.18610   1
   8  14  24 310.515 11.4282  -2
   4   6  28 310.515 11.4282   1
   3  19  21 311.620 10.0753  -2
   4   6  28 311.620 10.0753   1
  16  16  18 370.665 9.61187  -2
   4   6  28 370.665 9.61187   1
  11  13  23 605.877 22.2039  -2
   4   6  28 605.877 22.2039   1
   1  21  21 370.350 14.0339  -2
   6   6  28 370.350 14.0339   1
   9  13  25 501.194 17.8128  -2
   6   6  28 501.194 17.8128   1
  17  17  17 513.525 28.4937  -2
   6   6  28 513.525 28.4937   1
   4  16  24 -0.4921 3.48511  -2
   0   8  28 -0.4921 3.48511   1
  13  15  21 -4.8259 13.1861  -2
   0   8  28 -4.8259 13.1861   1
  14  16  20 27.3688 3.57345  -2
   2   8  28 27.3688 3.57345   1
  13  13  23 361.344 16.4411  -2
   2   8  28 361.344 16.4411   1
   5  15  25 12.8934 7.30249  -2
   2   8  28 12.8934 7.30249   1
   3  17  23 13.7024 9.27077  -2
   2   8  28 13.7024 9.27077   1
   7  13  25 186.899 11.6625  -2
   4   8  28 186.899 11.6625   1
   1  19  23 183.744 8.29648  -2
   4   8  28 183.744 8.29648   1
  12  12  24 592.833 14.2661  -2
   4   8  28 592.833 14.2661   1
  15  17  19 248.266 13.1381  -2
   4   8  28 248.266 13.1381   1
  11  11  25 539.226 20.3260  -2
   6   8  28 539.226 20.3260   1
   0  20  22 245.906 7.22805  -2
   6   8  28 245.906 7.22805   1
  15  17  19 319.574 14.4783  -2
   6   8  28 319.574 14.4783   1
   8  12  26 256.397 11.2480  -2
   6   8  28 256.397 11.2480   1
   1  21  21 139.178 12.5594  -2
   8   8  28 139.178 12.5594   1
   9  11  27 128.892 13.6648  -2
   8   8  28 128.892 13.6648   1
  16  16  20 171.297 7.99395  -2
   8   8  28 171.297 7.99395   1
  12  16  22 73.1216 5.23667  -2
   0  10  28 73.1216 5.23667   1
   3  15  25 74.8978 8.17998  -2
   0  10  28 74.8978 8.17998   1
   4  14  26 6.91843 3.79958  -2
   2  10  28 6.91843 3.79958   1
   1  17  25 45.1614 8.09193  -2
   2  10  28 45.1614 8.09193   1
  13  17  21 14.2286 12.4555  -2
   2  10  28 14.2286 12.4555   1
  11  15  23 121.248 15.0943  -2
   2  10  28 121.248 15.0943   1
   0  18  24 78.0085 5.01998  -2
   4  10  28 78.0085 5.01998   1
   5  13  27 37.7516 9.30633  -2
   4  10  28 37.7516 9.30633   1
  11  13  25 313.811 14.7489  -2
   4  10  28 313.811 14.7489   1
  13  19  19 98.2241 13.3553  -2
   4  10  28 98.2241 13.3553   1
  14  18  20 121.067 5.30488  -2
   6  10  28 121.067 5.30488   1
  10  12  26 240.672 8.42615  -2
   6  10  28 240.672 8.42615   1
   1  19  23 71.7340 6.10516  -2
   6  10  28 71.7340 6.10516   1
   7  11  27 51.5623 12.5291  -2
   6  10  28 51.5623 12.5291   1
   3  21  23 46.3366 4.93880  -2
   8  10  28 46.3366 4.93880   1
   9  11  27 36.2835 10.6713  -2
   8  10  28 36.2835 10.6713   1
   8  10  28 -1.8425 4.16729  -2
   8  10  28 -1.8425 4.16729   1
  15  17  21 12.6033 7.50400  -2
   8  10  28 12.6033 7.50400   1
   4  22  22 43.0880 7.74221  -2
  10  10  28 43.0880 7.74221   1
   9   9  29 24.9261 11.6703  -2
  10  10  28 24.9261 11.6703   1
  15  15  23 33.6806 7.58373  -2
  10  10  28 33.6806 7.58373   1
   1  15  27 62.1764 8.14969  -2
   0  12  28 62.1764 8.14969   1
  11  17  23 90.4310 12.1782  -2
   0  12  28 90.4310 12.1782   1
   3  13  27 27.5226 7.42442  -2
   2  12  28 27.5226 7.42442   1
  11  19  21 19.0225 9.06101  -2
   2  12  28 19.0225 9.06101   1
   0  16  26 40.9771 4.87541  -2
   2  12  28 40.9771 4.87541   1
  10  16  24 48.9445 4.36491  -2
   2  12  28 48.9445 4.36491   1
   1  17  25 50.0147 6.04125  -2
   4  12  28 50.0147 6.04125   1
   9  15  25 6.72323 13.7941  -2
   4  12  28 6.72323 13.7941   1
   4  12  28 5.62907 3.51167  -2
   4  12  28 5.62907 3.51167   1
  12  20  20 15.5244 3.88246  -2
   4  12  28 15.5244 3.88246   1
   5  11  29 43.3724 10.5047  -2
   6  12  28 43.3724 10.5047   1
   3  19  25 11.8397 6.37752  -2
   6  12  28 11.8397 6.37752   1
   9  13  27 50.4547 10.5737  -2
   6  12  28 50.4547 10.5737   1
  13  19  21 13.4733 8.32325  -2
   6  12  28 13.4733 8.32325   1
   4  20  24 5.86195 2.86627  -2
   8  12  28 5.86195 2.86627   1
   8  12  28 -2.9026 2.88456  -2
   8  12  28 -2.9026 2.88456   1
   7   9  29 68.3927 13.0424  -2
   8  12  28 68.3927 13.0424   1
  13  17  23 12.8840 8.47575  -2
   8  12  28 12.8840 8.47575   1
   5  21  23 68.5050 5.62372  -2
  10  12  28 68.5050 5.62372   1
  14  16  24 98.6499 4.91384  -2
  10  12  28 98.6499 4.91384   1
   7  11  29 64.8524 11.7094  -2
  10  12  28 64.8524 11.7094   1
   8   8  30 143.340 7.96750  -2
  10  12  28 143.340 7.96750   1
   7  23  23 81.9381 11.7770  -2
  12  12  28 81.9381 11.7770   1
   7   9  31 146.692 13.5517  -2
  12  12  28 146.692 13.5517   1
  15  15  25 120.095 14.5003  -2
  12  12  28 120.095 14.5003   1
   9  19  23 -5.8780 8.95256  -2
   0  14  28 -5.8780 8.95256   1
   0  14  28 5.37304 4.12308  -2
   0  14  28 5.37304 4.12308   1
   1  15  27 1.61013 7.76496  -2
   2  14  28 1.61013 7.76496   1
   1  13  29 3.18146 7.59023  -2
   2  14  28 3.18146 7.59023   1
  10  20  22 15.1022 3.92351  -2
   2  14  28 15.1022 3.92351   1
   9  17  25 -2.4760 10.7144  -2
   2  14  28 -2.4760 10.7144   1
   3  17  27 89.1756 8.19337  -2
   4  14  28 89.1756 8.19337   1
   8  16  26 46.2011 4.50335  -2
   4  14  28 46.2011 4.50335   1
  11  21  21 74.1372 9.62699  -2
   4  14  28 74.1372 9.62699   1
   3  11  29 64.8065 7.69143  -2
   4  14  28 64.8065 7.69143   1
   4  18  26 91.2305 4.96707  -2
   6  14  28 91.2305 4.96707   1
  11  19  23 72.3629 11.0596  -2
   6  14  28 72.3629 11.0596   1
   4  10  30 108.799 5.39385  -2
   6  14  28 108.799 5.39385   1
   7  15  27 75.5267 12.3982  -2
   6  14  28 75.5267 12.3982   1
   5  19  25 6.01934 6.53480  -2
   8  14  28 6.01934 6.53480   1
   5   9  31 87.2824 11.4419  -2
   8  14  28 87.2824 11.4419   1
   7  13  29 31.9023 10.5522  -2
   8  14  28 31.9023 10.5522   1
  12  18  24 55.3536 4.40569  -2
   8  14  28 55.3536 4.40569   1
   6  12  30 57.0666 4.50192  -2
  10  14  28 57.0666 4.50192   1
  13  17  25 19.5605 8.85893  -2
  10  14  28 19.5605 8.85893   1
   7  21  25 2.52080 6.43689  -2
  10  14  28 2.52080 6.43689   1
   7   7  31 159.130 13.6505  -2
  10  14  28 159.130 13.6505   1
   8  22  24 20.3337 3.96910  -2
  12  14  28 20.3337 3.96910   1
   5  11  31 69.7596 11.8955  -2
  12  14  28 69.7596 11.8955   1
  13  15  27 13.8840 8.88247  -2
  12  14  28 13.8840 8.88247   1
   6   8  32 116.418 7.15658  -2
  12  14  28 116.418 7.15658   1
   9  23  23 18.1763 5.55474  -2
  14  14  28 18.1763 5.55474   1
   5   9  33 17.4440 10.7183  -2
  14  14  28 17.4440 10.7183   1
  14  14  28 -1.1166 4.50935  -2
  14  14  28 -1.1166 4.50935   1
   8  20  24 14.5199 3.79851  -2
   0  16  28 14.5199 3.79851   1
   1  13  29 7.11542 8.83355  -2
   0  16  28 7.11542 8.83355   1
   3  15  29 129.282 7.64887  -2
   2  16  28 129.282 7.64887   1
   9  21  23 96.6397 10.7959  -2
   2  16  28 96.6397 10.7959   1
   0  12  30 74.3541 6.00247  -2
   2  16  28 74.3541 6.00247   1
   7  19  25 67.3860 13.7271  -2
   2  16  28 67.3860 13.7271   1
   1  11  31 196.879 10.3906  -2
   4  16  28 196.879 10.3906   1
   4  16  28 287.462 8.90187  -2
   4  16  28 287.462 8.90187   1
   7  17  27 242.945 14.1235  -2
   4  16  28 242.945 14.1235   1
   9  21  23 195.563 11.7528  -2
   4  16  28 195.563 11.7528   1
   6  16  28 305.822 9.68661  -2
   6  16  28 305.822 9.68661   1
   3   9  31 233.922 11.4834  -2
   6  16  28 233.922 11.4834   1
   5  17  27 286.339 11.5124  -2
   6  16  28 286.339 11.5124   1
  10  20  24 216.277 7.67323  -2
   6  16  28 216.277 7.67323   1
   5  15  29 201.249 11.9250  -2
   8  16  28 201.249 11.9250   1
   4   8  32 140.011 8.74265  -2
   8  16  28 140.011 8.74265   1
   7  19  27 168.033 8.67203  -2
   8  16  28 168.033 8.67203   1
  11  19  25 112.293 9.72349  -2
   8  16  28 112.293 9.72349   1
   5   7  33 56.7622 10.7707  -2
  10  16  28 56.7622 10.7707   1
   5  13  31 35.4219 7.78112  -2
  10  16  28 35.4219 7.78112   1
   8  20  26 23.0075 4.06193  -2
  10  16  28 23.0075 4.06193   1
  11  17  27 4.97399 9.30726  -2
  10  16  28 4.97399 9.30726   1
   5   7  33 53.5291 9.32568  -2
  12  16  28 53.5291 9.32568   1
  12  16  28 4.02654 3.03259  -2
  12  16  28 4.02654 3.03259   1
   4  12  32 -1.5235 3.63946  -2
  12  16  28 -1.5235 3.63946   1
   9  21  25 16.4960 6.90479  -2
  12  16  28 16.4960 6.90479   1
  11  23  25 96.4685 7.61958  -2
  14  16  28 96.4685 7.61958   1
   3  11  33 4.88138 9.04114  -2
  14  16  28 4.88138 9.04114   1
   4   8  34 6.40654 3.95277  -2
  14  16  28 6.40654 3.95277   1
  13  15  29 14.8370 8.77773  -2
  14  16  28 14.8370 8.77773   1
   3   9  35 77.4690 10.1235  -2
  16  16  28 77.4690 10.1235   1
  13  13  31 39.4431 11.4160  -2
  16  16  28 39.4431 11.4160   1
  12  24  24 197.667 9.56056  -2
  16  16  28 197.667 9.56056   1
   7  21  25 22.8770 9.00834  -2
   0  18  28 22.8770 9.00834   1
   3  13  31 37.4411 8.80654  -2
   0  18  28 37.4411 8.80654   1
   6  20  26 90.3357 5.99683  -2
   2  18  28 90.3357 5.99683   1
   7  23  23 98.3287 11.7810  -2
   2  18  28 98.3287 11.7810   1
   1  11  31 86.7591 9.33596  -2
   2  18  28 86.7591 9.33596   1
   4  14  30 140.732 7.41855  -2
   2  18  28 140.732 7.41855   1
   5  15  29 325.319 12.4052  -2
   4  18  28 325.319 12.4052   1
   0  10  32 238.521 9.55186  -2
   4  18  28 238.521 9.55186   1
   8  22  24 206.845 8.11753  -2
   4  18  28 206.845 8.11753   1
   5  19  27 279.331 11.9179  -2
   4  18  28 279.331 11.9179   1
   9  21  25 229.791 11.0824  -2
   6  18  28 229.791 11.0824   1
   5  17  29 398.820 18.0869  -2
   6  18  28 398.820 18.0869   1
   7  17  29 384.191 13.4884  -2
   6  18  28 384.191 13.4884   1
   1   9  33 292.971 15.3956  -2
   6  18  28 292.971 15.3956   1
   3   7  33 145.070 9.01329  -2
   8  18  28 145.070 9.01329   1
   8  18  28 197.379 7.82017  -2
   8  18  28 197.379 7.82017   1
   9  19  27 144.958 10.3611  -2
   8  18  28 144.958 10.3611   1
   4  16  30 227.599 8.63013  -2
   8  18  28 227.599 8.63013   1
   9  19  27 48.0444 7.55097  -2
  10  18  28 48.0444 7.55097   1
   4   6  34 30.5470 5.28413  -2
  10  18  28 30.5470 5.28413   1
  10  18  28 41.8620 4.79931  -2
  10  18  28 41.8620 4.79931   1
   3  15  31 61.5648 10.0031  -2
  10  18  28 61.5648 10.0031   1
  11  21  27 13.1123 7.35452  -2
  12  18  28 13.1123 7.35452   1
   5   5  35 -0.3822 8.99868  -2
  12  18  28 -0.3822 8.99868   1
  11  17  29 33.3664 8.44017  -2
  12  18  28 33.3664 8.44017   1
   3  13  33 4.68992 7.36691  -2
  12  18  28 4.68992 7.36691   1
  11  15  31 29.0684 7.52090  -2
  14  18  28 29.0684 7.52090   1
  12  22  26 92.2537 5.86109  -2
  14  18  28 92.2537 5.86109   1
   2  12  34 100.951 5.83224  -2
  14  18  28 100.951 5.83224   1
   3   7  35 16.4680 9.63723  -2
  14  18  28 16.4680 9.63723   1
   2   8  36 110.671 6.82580  -2
  16  18  28 110.671 6.82580   1
   1  11  35 203.194 12.1361  -2
  16  18  28 203.194 12.1361   1
  12  14  32 98.6642 5.95280  -2
  16  18  28 98.6642 5.95280   1
  13  23  25 206.073 9.86508  -2
  16  18  28 206.073 9.86508   1
   1   9  37 189.790 13.4032  -2
  18  18  28 189.790 13.4032   1
  13  13  33 172.965 13.4837  -2
  18  18  28 172.965 13.4837   1
  15  25  25 164.100 15.5694  -2
  18  18  28 164.100 15.5694   1
   5  23  25 9.77361 8.25974  -2
   0  20  28 9.77361 8.25974   1
   4  12  32 3.50551 4.95976  -2
   0  20  28 3.50551 4.95976   1
   5  21  27 24.3927 8.19405  -2
   2  20  28 24.3927 8.19405   1
   5  13  31 75.8416 9.14170  -2
   2  20  28 75.8416 9.14170   1
   6  24  24 46.5712 5.05636  -2
   2  20  28 46.5712 5.05636   1
   3  11  33 13.2775 8.38128  -2
   2  20  28 13.2775 8.38128   1
   1   9  33 102.657 8.27973  -2
   4  20  28 102.657 8.27973   1
   7  23  25 112.938 9.74280  -2
   4  20  28 112.938 9.74280   1
   7  15  31 172.777 10.4836  -2
   4  20  28 172.777 10.4836   1
   4  20  28 150.300 7.48242  -2
   4  20  28 150.300 7.48242   1
   7  21  27 108.614 10.1486  -2
   6  20  28 108.614 10.1486   1
   3  19  29 182.111 12.3756  -2
   6  20  28 182.111 12.3756   1
   0   8  34 147.855 5.75940  -2
   6  20  28 147.855 5.75940   1
   8  16  30 197.163 8.83974  -2
   6  20  28 197.163 8.83974   1
   1   7  35 71.8329 7.73959  -2
   8  20  28 71.8329 7.73959   1
   9  17  29 108.125 9.86923  -2
   8  20  28 108.125 9.86923   1
   8  20  28 66.5443 5.31989  -2
   8  20  28 66.5443 5.31989   1
   3  17  31 95.4616 9.93502  -2
   8  20  28 95.4616 9.93502   1
   2  16  32 0.85304 3.84241  -2
  10  20  28 0.85304 3.84241   1
   9  19  29 16.4614 8.33220  -2
  10  20  28 16.4614 8.33220   1
  11  19  29 -8.2673 8.28609  -2
  10  20  28 -8.2673 8.28609   1
   3   5  35 -3.4620 6.97730  -2
  10  20  28 -3.4620 6.97730   1
   1  15  33 19.5832 10.0084  -2
  12  20  28 19.5832 10.0084   1
   4   4  36 0.27450 4.10112  -2
  12  20  28 0.27450 4.10112   1
   9  17  31 34.1849 9.29025  -2
  12  20  28 34.1849 9.29025   1
  12  20  28 -4.4626 3.72641  -2
  12  20  28 -4.4626 3.72641   1
  10  16  32 6.56043 3.46222  -2
  14  20  28 6.56043 3.46222   1
  13  21  27 20.2003 7.87686  -2
  14  20  28 20.2003 7.87686   1
   3   5  37 14.7318 8.91997  -2
  14  20  28 14.7318 8.91997   1
   1  13  35 108.965 9.15950  -2
  14  20  28 108.965 9.15950   1
   0  12  36 189.138 8.00626  -2
  16  20  28 189.138 8.00626   1
  11  15  33 66.3875 8.35150  -2
  16  20  28 66.3875 8.35150   1
  15  23  27 41.6351 8.45305  -2
  16  20  28 41.6351 8.45305   1
   1   7  37 65.1482 10.1224  -2
  16  20  28 65.1482 10.1224   1
   5  11  33 16.1149 8.85883  -2
   0  22  28 16.1149 8.85883   1
   4  24  26 42.0478 5.61309  -2
   0  22  28 42.0478 5.61309   1
   4  10  34 1.17388 4.80498  -2
   2  22  28 1.17388 4.80498   1
   7  13  33 6.19182 9.53011  -2
   2  22  28 6.19182 9.53011   1
   5  25  25 11.6365 12.4638  -2
   2  22  28 11.6365 12.4638   1
   3  23  27 5.54194 10.5950  -2
   2  22  28 5.54194 10.5950   1
   3   9  35 19.5327 7.61875  -2
   4  22  28 19.5327 7.61875   1
   8  14  32 11.7187 5.68776  -2
   4  22  28 11.7187 5.68776   1
   3  21  29 38.7434 11.5092  -2
   4  22  28 38.7434 11.5092   1
   5  23  27 -5.3954 9.62916  -2
   4  22  28 -5.3954 9.62916   1
   9  15  31 42.3978 9.34989  -2
   6  22  28 42.3978 9.34989   1
   2  20  30 49.9607 5.05284  -2
   6  22  28 49.9607 5.05284   1
   1   7  35 35.6681 9.12549  -2
   6  22  28 35.6681 9.12549   1
   6  22  28 16.5752 5.22490  -2
   6  22  28 16.5752 5.22490   1
   0   6  36 30.8422 4.71575  -2
   8  22  28 30.8422 4.71575   1
  11  17  31 20.1595 9.68674  -2
   8  22  28 20.1595 9.68674   1
   1  19  31 28.5815 10.4204  -2
   8  22  28 28.5815 10.4204   1
   7  21  29 19.9420 10.5632  -2
   8  22  28 19.9420 10.5632   1
   1   5  37 29.5457 7.93374  -2
  10  22  28 29.5457 7.93374   1
   1  17  33 10.0941 9.12477  -2
  10  22  28 10.0941 9.12477   1
  12  18  30 12.6905 5.40612  -2
  10  22  28 12.6905 5.40612   1
   7  19  31 78.6229 9.96436  -2
  10  22  28 78.6229 9.96436   1
  13  19  29 27.9325 9.29402  -2
  12  22  28 27.9325 9.29402   1
   8  18  32 53.3279 5.90600  -2
  12  22  28 53.3279 5.90600   1
   3   3  37 49.5880 10.6160  -2
  12  22  28 49.5880 10.6160   1
   0  16  34 34.6715 4.99949  -2
  12  22  28 34.6715 4.99949   1
   1  15  35 33.5977 9.86083  -2
  14  22  28 33.5977 9.86083   1
   9  17  33 8.07848 10.6458  -2
  14  22  28 8.07848 10.6458   1
   2   4  38 6.63476 4.58706  -2
  14  22  28 6.63476 4.58706   1
   7  11  35 48.8322 9.56728  -2
   0  24  28 48.8322 9.56728   1
   3  25  27 52.7068 11.3037  -2
   0  24  28 52.7068 11.3037   1
   3  25  27 23.9198 11.0698  -2
   2  24  28 23.9198 11.0698   1
   8  12  34 29.7333 6.33449  -2
   2  24  28 29.7333 6.33449   1
   2  24  28 30.1953 5.80136  -2
   2  24  28 30.1953 5.80136   1
   5   9  35 33.7624 9.74419  -2
   2  24  28 33.7624 9.74419   1
   4  24  28 8.60569 5.42979  -2
   4  24  28 8.60569 5.42979   1
   9  13  33 -6.7004 9.08276  -2
   4  24  28 -6.7004 9.08276   1
   4   8  36 0.22767 5.08250  -2
   4  24  28 0.22767 5.08250   1
   1  23  29 20.3100 13.0615  -2
   4  24  28 20.3100 13.0615   1
   3   7  37 14.5553 9.28904  -2
   6  24  28 14.5553 9.28904   1
   1  21  31 12.2444 10.3721  -2
   6  24  28 12.2444 10.3721   1
   5  23  29 14.2981 10.0396  -2
   6  24  28 14.2981 10.0396   1
  11  15  33 20.0009 10.1659  -2
   6  24  28 20.0009 10.1659   1
   5  21  31 34.0425 9.99781  -2
   8  24  28 34.0425 9.99781   1
   1   5  37 18.4153 8.22266  -2
   8  24  28 18.4153 8.22266   1
  12  16  32 -5.8359 4.56913  -2
   8  24  28 -5.8359 4.56913   1
   0  20  32 9.04365 4.13156  -2
   8  24  28 9.04365 4.13156   1
   1  19  33 48.8022 9.03902  -2
  10  24  28 48.8022 9.03902   1
   6  20  32 64.9318 6.80653  -2
  10  24  28 64.9318 6.80653   1
  13  17  31 25.8810 9.77380  -2
  10  24  28 25.8810 9.77380   1
   0   4  38 29.7772 4.50878  -2
  10  24  28 29.7772 4.50878   1
   8  10  36 62.1271 7.04486  -2
   0  26  28 62.1271 7.04486   1
   1  27  27 41.3661 11.4931  -2
   0  26  28 41.3661 11.4931   1
   9  11  35 58.9659 10.2433  -2
   2  26  28 58.9659 10.2433   1
   1  25  29 16.5499 11.4923  -2
   2  26  28 16.5499 11.4923   1
   2  26  28 8.46985 5.11601  -2
   2  26  28 8.46985 5.11601   1
   5   7  37 3.83020 9.13655  -2
   4  26  28 3.83020 9.13655   1
   3  25  29 12.3988 11.9405  -2
   4  26  28 12.3988 11.9405   1
   0  24  30 5.88639 5.00391  -2
   4  26  28 5.88639 5.00391   1
  11  19  19 58.8830 5.35840  -2
   1   1  29 58.8830 5.35840   1
   8  20  20 99.2233 11.9830  -2
   1   1  29 99.2233 11.9830   1
  10  18  20 64.4229 9.72980  -2
   1   1  29 64.4229 9.72980   1
   8  18  22 87.0638 7.58169  -2
   1   3  29 87.0638 7.58169   1
  12  18  20 29.7568 8.76416  -2
   1   3  29 29.7568 8.76416   1
  11  17  21 12.1065 4.50600  -2
   1   3  29 12.1065 4.50600   1
   7  19  21 151.019 5.90165  -2
   1   3  29 151.019 5.90165   1
  10  16  22 115.762 8.56091  -2
   3   3  29 115.762 8.56091   1
  14  18  18 225.674 12.1891  -2
   3   3  29 225.674 12.1891   1
   6  20  20 294.012 12.7946  -2
   3   3  29 294.012 12.7946   1
   7  17  23 144.461 6.12951  -2
   1   5  29 144.461 6.12951   1
  12  16  22 117.408 10.1432  -2
   1   5  29 117.408 10.1432   1
  14  16  20 110.655 10.9166  -2
   1   5  29 110.655 10.9166   1
   6  18  22 216.848 12.0653  -2
   1   5  29 216.848 12.0653   1
   8  16  24 231.601 11.8398  -2
   3   5  29 231.601 11.8398   1
  11  15  23 365.694 11.2637  -2
   3   5  29 365.694 11.2637   1
  15  17  19 342.534 9.63915  -2
   3   5  29 342.534 9.63915   1
   4  20  22 251.844 9.29802  -2
   3   5  29 251.844 9.29802   1
   3  21  21 357.912 10.8631  -2
   5   5  29 357.912 10.8631   1
  16  18  18 592.161 21.2161  -2
   5   5  29 592.161 21.2161   1
  10  14  24 543.386 22.1902  -2
   5   5  29 543.386 22.1902   1
  15  15  21 65.8872 4.30874  -2
   1   7  29 65.8872 4.30874   1
   4  18  24 58.3926 7.96260  -2
   1   7  29 58.3926 7.96260   1
   6  16  24 57.4725 6.73981  -2
   1   7  29 57.4725 6.73981   1
  14  14  22 169.418 14.7327  -2
   1   7  29 169.418 14.7327   1
  12  14  24 499.820 15.8190  -2
   3   7  29 499.820 15.8190   1
   3  19  23 207.833 6.64533  -2
   3   7  29 207.833 6.64533   1
   7  15  25 209.732 9.43114  -2
   3   7  29 209.732 9.43114   1
  16  16  20 283.274 14.6883  -2
   3   7  29 283.274 14.6883   1
  16  18  18 540.071 18.2051  -2
   5   7  29 540.071 18.2051   1
   8  14  26 383.460 15.6179  -2
   5   7  29 383.460 15.6179   1
  11  13  25 660.977 15.8160  -2
   5   7  29 660.977 15.8160   1
   2  20  22 393.475 11.5476  -2
   5   7  29 393.475 11.5476   1
  17  17  19 520.342 14.4243  -2
   7   7  29 520.342 14.4243   1
  10  12  26 501.433 19.6505  -2
   7   7  29 501.433 19.6505   1
   0  22  22 487.852 20.3921  -2
   7   7  29 487.852 20.3921   1
  14  16  22 11.7176 10.6382  -2
   1   9  29 11.7176 10.6382   1
   4  16  26 8.28984 7.56528  -2
   1   9  29 8.28984 7.56528   1
  13  15  23 137.183 6.50820  -2
   1   9  29 137.183 6.50820   1
   3  17  25 -1.7105 3.66675  -2
   1   9  29 -1.7105 3.66675   1
  14  18  20 129.724 10.8378  -2
   3   9  29 129.724 10.8378   1
   2  18  24 108.269 10.0059  -2
   3   9  29 108.269 10.0059   1
   6  14  26 50.8407 9.97281  -2
   3   9  29 50.8407 9.97281   1
  12  14  24 335.657 16.7324  -2
   3   9  29 335.657 16.7324   1
  15  19  19 289.644 9.12287  -2
   5   9  29 289.644 9.12287   1
   0  20  24 237.575 8.38964  -2
   5   9  29 237.575 8.38964   1
   7  13  27 172.121 8.68440  -2
   5   9  29 172.121 8.68440   1
  12  12  26 414.039 16.8832  -2
   5   9  29 414.039 16.8832   1
  16  18  20 290.045 11.1651  -2
   7   9  29 290.045 11.1651   1
  11  11  27 272.520 9.96083  -2
   7   9  29 272.520 9.96083   1
   8  12  28 140.327 12.5483  -2
   7   9  29 140.327 12.5483   1
   1  21  23 241.269 7.15977  -2
   7   9  29 241.269 7.15977   1
  10  10  28 27.7338 11.8602  -2
   9   9  29 27.7338 11.8602   1
   2  22  22 130.299 12.7514  -2
   9   9  29 130.299 12.7514   1
  16  16  22 25.8857 6.84094  -2
   9   9  29 25.8857 6.84094   1
  12  18  22 -0.8090 11.5125  -2
   1  11  29 -0.8090 11.5125   1
   2  16  26 -1.9597 7.47941  -2
   1  11  29 -1.9597 7.47941   1
   3  15  27 0.94352 3.85276  -2
   1  11  29 0.94352 3.85276   1
  12  16  24 79.4380 12.6962  -2
   1  11  29 79.4380 12.6962   1
   0  18  26 4.76795 7.84680  -2
   3  11  29 4.76795 7.84680   1
  13  19  21 24.1072 3.71813  -2
   3  11  29 24.1072 3.71813   1
   4  14  28 36.0211 6.97776  -2
   3  11  29 36.0211 6.97776   1
  11  15  25 154.191 6.92374  -2
   3  11  29 154.191 6.92374   1
   1  19  25 79.8003 5.23773  -2
   5  11  29 79.8003 5.23773   1
  14  20  20 89.2650 8.28242  -2
   5  11  29 89.2650 8.28242   1
   6  12  28 58.5325 10.3609  -2
   5  11  29 58.5325 10.3609   1
  10  14  26 148.830 13.3210  -2
   5  11  29 148.830 13.3210   1
  10  12  28 79.0113 11.0982  -2
   7  11  29 79.0113 11.0982   1
   2  20  24 86.6355 5.79185  -2
   7  11  29 86.6355 5.79185   1
  14  18  22 41.6904 7.87162  -2
   7  11  29 41.6904 7.87162   1
   7  11  29 59.1878 6.36143  -2
   7  11  29 59.1878 6.36143   1
   8  10  30 35.6801 11.4562  -2
   9  11  29 35.6801 11.4562   1
  15  17  23 -7.4581 2.73700  -2
   9  11  29 -7.4581 2.73700   1
   4  22  24 41.1498 5.83771  -2
   9  11  29 41.1498 5.83771   1
   9  11  29 -4.3971 4.16664  -2
   9  11  29 -4.3971 4.16664   1
   5  23  23 51.3206 7.61901  -2
  11  11  29 51.3206 7.61901   1
   8  10  30 44.3809 12.3782  -2
  11  11  29 44.3809 12.3782   1
  16  16  24 -3.6998 12.6441  -2
  11  11  29 -3.6998 12.6441   1
   2  14  28 2.60979 9.02651  -2
   1  13  29 2.60979 9.02651   1
   0  16  28 -5.3066 7.87265  -2
   1  13  29 -5.3066 7.87265   1
  11  19  23 23.5601 3.74999  -2
   1  13  29 23.5601 3.74999   1
  10  18  24 4.95506 9.25739  -2
   1  13  29 4.95506 9.25739   1
   3  13  29 42.3914 4.57975  -2
   3  13  29 42.3914 4.57975   1
   1  17  27 44.0415 4.88932  -2
   3  13  29 44.0415 4.88932   1
  12  20  22 39.9964 10.4375  -2
   3  13  29 39.9964 10.4375   1
  10  16  26 59.3223 12.2570  -2
   3  13  29 59.3223 12.2570   1
   4  12  30 137.943 8.20475  -2
   5  13  29 137.943 8.20475   1
   2  18  26 83.1550 7.11969  -2
   5  13  29 83.1550 7.11969   1
   9  15  27 83.1797 5.40381  -2
   5  13  29 83.1797 5.40381   1
  12  20  22 98.3616 10.0031  -2
   5  13  29 98.3616 10.0031   1
   8  14  28 63.6459 11.9602  -2
   7  13  29 63.6459 11.9602   1
   4  20  26 62.0890 7.25339  -2
   7  13  29 62.0890 7.25339   1
  13  19  23 79.9992 4.82056  -2
   7  13  29 79.9992 4.82056   1
   6  10  30 141.890 13.0550  -2
   7  13  29 141.890 13.0550   1
   7   9  31 89.9973 7.16371  -2
   9  13  29 89.9973 7.16371   1
  14  18  24 15.8846 7.92195  -2
   9  13  29 15.8846 7.92195   1
   5  21  25 7.57353 2.95144  -2
   9  13  29 7.57353 2.95144   1
   8  12  30 -13.229 10.4623  -2
   9  13  29 -13.229 10.4623   1
   8   8  32 62.6639 11.3385  -2
  11  13  29 62.6639 11.3385   1
   7  11  31 34.5652 5.08104  -2
  11  13  29 34.5652 5.08104   1
   6  22  24 27.3078 4.82700  -2
  11  13  29 27.3078 4.82700   1
  14  16  26 20.5301 7.55548  -2
  11  13  29 20.5301 7.55548   1
  15  15  27 -6.7131 4.52973  -2
  13  13  29 -6.7131 4.52973   1
   6  10  32 59.6220 10.9944  -2
  13  13  29 59.6220 10.9944   1
   8  24  24 47.9186 12.0487  -2
  13  13  29 47.9186 12.0487   1
   1  15  29 59.3351 5.50640  -2
   1  15  29 59.3351 5.50640   1
  10  20  24 58.5921 10.4092  -2
   1  15  29 58.5921 10.4092   1
   9  19  25 33.1663 4.55383  -2
   1  15  29 33.1663 4.55383   1
   0  14  30 52.4822 8.39032  -2
   1  15  29 52.4822 8.39032   1
   2  16  28 164.368 7.82847  -2
   3  15  29 164.368 7.82847   1
   2  12  30 131.795 9.33430  -2
   3  15  29 131.795 9.33430   1
   8  18  26 150.450 11.1580  -2
   3  15  29 150.450 11.1580   1
  10  22  22 138.756 9.67972  -2
   3  15  29 138.756 9.67972   1
  11  21  23 245.682 7.98675  -2
   5  15  29 245.682 7.98675   1
   4  18  28 339.668 12.4537  -2
   5  15  29 339.668 12.4537   1
   3  11  31 231.746 9.25592  -2
   5  15  29 231.746 9.25592   1
   8  16  28 241.087 12.6457  -2
   5  15  29 241.087 12.6457   1
  12  20  24 199.005 11.1166  -2
   7  15  29 199.005 11.1166   1
   7  15  29 247.089 8.74828  -2
   7  15  29 247.089 8.74828   1
   4  10  32 185.112 12.9762  -2
   7  15  29 185.112 12.9762   1
   5  19  27 228.355 8.22840  -2
   7  15  29 228.355 8.22840   1
   6  14  30 122.881 11.1212  -2
   9  15  29 122.881 11.1212   1
   6  20  26 55.8140 7.40464  -2
   9  15  29 55.8140 7.40464   1
  12  18  26 56.6433 10.2121  -2
   9  15  29 56.6433 10.2121   1
   6   8  32 168.194 12.8043  -2
   9  15  29 168.194 12.8043   1
   8  22  26 11.2209 6.61061  -2
  11  15  29 11.2209 6.61061   1
   6  12  32 25.2348 9.98444  -2
  11  15  29 25.2348 9.98444   1
   7   7  33 67.3053 6.55178  -2
  11  15  29 67.3053 6.55178   1
  13  17  27 12.6443 3.48027  -2
  11  15  29 12.6443 3.48027   1
   9  23  25 44.9309 4.48766  -2
  13  15  29 44.9309 4.48766   1
   5  11  33 4.67231 4.15856  -2
  13  15  29 4.67231 4.15856   1
  14  16  28 24.3900 9.80478  -2
  13  15  29 24.3900 9.80478   1
   6   8  34 23.8059 10.5479  -2
  13  15  29 23.8059 10.5479   1
  14  14  30 49.3539 10.6502  -2
  15  15  29 49.3539 10.6502   1
  10  24  24 127.620 13.7579  -2
  15  15  29 127.620 13.7579   1
   4  10  34 61.4223 9.90219  -2
  15  15  29 61.4223 9.90219   1
   8  22  24 112.674 10.9488  -2
   1  17  29 112.674 10.9488   1
   1  13  31 86.5688 6.03053  -2
   1  17  29 86.5688 6.03053   1
   8  20  26 127.452 10.8017  -2
   1  17  29 127.452 10.8017   1
   2  14  30 84.0202 9.72043  -2
   1  17  29 84.0202 9.72043   1
   9  23  23 250.576 9.29801  -2
   3  17  29 250.576 9.29801   1
   0  12  32 217.524 11.3022  -2
   3  17  29 217.524 11.3022   1
   7  19  27 249.264 8.84323  -2
   3  17  29 249.264 8.84323   1
   4  16  30 327.305 12.4172  -2
   3  17  29 327.305 12.4172   1
   6  18  28 443.167 15.3779  -2
   5  17  29 443.167 15.3779   1
   5  17  29 495.670 13.9502  -2
   5  17  29 495.670 13.9502   1
  10  22  24 391.279 14.7708  -2
   5  17  29 391.279 14.7708   1
   2  10  32 317.289 14.4325  -2
   5  17  29 317.289 14.4325   1
   3   9  33 265.853 10.1742  -2
   7  17  29 265.853 10.1742   1
   6  18  28 387.968 13.4685  -2
   7  17  29 387.968 13.4685   1
  10  20  26 258.667 12.3985  -2
   7  17  29 258.667 12.3985   1
   6  16  30 401.243 14.4199  -2
   7  17  29 401.243 14.4199   1
   5  15  31 169.128 7.30366  -2
   9  17  29 169.128 7.30366   1
   4   8  34 132.962 12.9229  -2
   9  17  29 132.962 12.9229   1
   8  20  28 123.132 9.41879  -2
   9  17  29 123.132 9.41879   1
  11  19  27 99.6993 5.83068  -2
   9  17  29 99.6993 5.83068   1
   6   6  34 34.5214 9.62140  -2
  11  17  29 34.5214 9.62140   1
   4  14  32 36.6420 7.59513  -2
  11  17  29 36.6420 7.59513   1
   9  21  27 35.9172 4.57583  -2
  11  17  29 35.9172 4.57583   1
  12  18  28 23.7995 9.12758  -2
  11  17  29 23.7995 9.12758   1
   5   7  35 23.2347 4.83194  -2
  13  17  29 23.2347 4.83194   1
  12  16  30 35.1129 6.66963  -2
  13  17  29 35.1129 6.66963   1
  10  22  26 49.8761 7.41677  -2
  13  17  29 49.8761 7.41677   1
   4  12  34 52.0599 9.84537  -2
  13  17  29 52.0599 9.84537   1
   3  11  35 137.395 6.60975  -2
  15  17  29 137.395 6.60975   1
   4   8  36 90.8042 10.4639  -2
  15  17  29 90.8042 10.4639   1
  12  24  26 184.455 11.0936  -2
  15  17  29 184.455 11.0936   1
  13  15  31 82.1677 5.35653  -2
  15  17  29 82.1677 5.35653   1
   2  10  36 249.645 12.8482  -2
  17  17  29 249.645 12.8482   1
  14  14  32 144.874 13.1206  -2
  17  17  29 144.874 13.1206   1
  13  25  25 226.807 13.3020  -2
  17  17  29 226.807 13.3020   1
   4  14  32 78.2702 8.89378  -2
   1  19  29 78.2702 8.89378   1
   7  23  25 68.0266 5.41520  -2
   1  19  29 68.0266 5.41520   1
   2  12  32 55.4263 9.35319  -2
   1  19  29 55.4263 9.35319   1
   6  22  26 55.0521 10.3597  -2
   1  19  29 55.0521 10.3597   1
   8  24  24 183.975 11.5464  -2
   3  19  29 183.975 11.5464   1
   5  15  31 233.241 9.45998  -2
   3  19  29 233.241 9.45998   1
   1  11  33 185.739 8.56609  -2
   3  19  29 185.739 8.56609   1
   6  20  28 195.532 10.8117  -2
   3  19  29 195.532 10.8117   1
   0  10  34 307.547 12.7049  -2
   5  19  29 307.547 12.7049   1
   8  22  26 231.280 12.7863  -2
   5  19  29 231.280 12.7863   1
   5  19  29 349.352 10.5344  -2
   5  19  29 349.352 10.5344   1
   6  16  30 370.464 13.5761  -2
   5  19  29 370.464 13.5761   1
   4  18  30 293.882 12.6858  -2
   7  19  29 293.882 12.6858   1
   8  18  30 246.218 11.8784  -2
   7  19  29 246.218 11.8784   1
   9  21  27 157.778 7.05404  -2
   7  19  29 157.778 7.05404   1
   2   8  34 180.287 9.98348  -2
   7  19  29 180.287 9.98348   1
  10  20  28 79.2159 10.3191  -2
   9  19  29 79.2159 10.3191   1
   9  19  29 84.7319 6.81443  -2
   9  19  29 84.7319 6.81443   1
   4  16  32 77.9166 9.82135  -2
   9  19  29 77.9166 9.82135   1
   3   7  35 61.9623 5.32340  -2
   9  19  29 61.9623 5.32340   1
   4   6  36 14.5178 8.82922  -2
  11  19  29 14.5178 8.82922   1
   3  15  33 8.41529 4.19999  -2
  11  19  29 8.41529 4.19999   1
  10  18  30 48.0409 9.00709  -2
  11  19  29 48.0409 9.00709   1
  10  20  28 9.89079 7.82458  -2
  11  19  29 9.89079 7.82458   1
   2  14  34 76.7302 9.02627  -2
  13  19  29 76.7302 9.02627   1
  11  17  31 25.5104 3.61729  -2
  13  19  29 25.5104 3.61729   1
  12  22  28 23.5097 7.88544  -2
  13  19  29 23.5097 7.88544   1
   4   6  36 26.2980 9.16420  -2
  13  19  29 26.2980 9.16420   1
  13  23  27 98.9162 6.35519  -2
  15  19  29 98.9162 6.35519   1
  12  16  32 63.3697 8.26982  -2
  15  19  29 63.3697 8.26982   1
   3   7  37 79.9995 5.81770  -2
  15  19  29 79.9995 5.81770   1
   2  12  36 194.915 12.2446  -2
  15  19  29 194.915 12.2446   1
   5  23  27 4.13417 4.27456  -2
   1  21  29 4.13417 4.27456   1
   6  24  26 8.27855 10.3401  -2
   1  21  29 8.27855 10.3401   1
   5  13  33 0.92728 4.87921  -2
   1  21  29 0.92728 4.87921   1
   4  12  34 5.86583 9.15829  -2
   1  21  29 5.86583 9.15829   1
   2  10  34 75.0475 7.83052  -2
   3  21  29 75.0475 7.83052   1
   6  14  32 41.7514 9.15102  -2
   3  21  29 41.7514 9.15102   1
   4  22  28 25.4516 10.0910  -2
   3  21  29 25.4516 10.0910   1
   6  24  26 42.7712 11.9194  -2
   3  21  29 42.7712 11.9194   1
   7  23  27 70.5376 5.38723  -2
   5  21  29 70.5376 5.38723   1
   8  16  32 127.890 11.0334  -2
   5  21  29 127.890 11.0334   1
   4  20  30 162.076 10.4513  -2
   5  21  29 162.076 10.4513   1
   1   9  35 150.419 6.71943  -2
   5  21  29 150.419 6.71943   1
   9  17  31 86.6997 6.71371  -2
   7  21  29 86.6997 6.71371   1
   0   8  36 141.226 11.9605  -2
   7  21  29 141.226 11.9605   1
   3  19  31 108.737 6.71955  -2
   7  21  29 108.737 6.71955   1
   8  22  28 28.7724 11.2563  -2
   7  21  29 28.7724 11.2563   1
   2   6  36 30.7298 9.67225  -2
   9  21  29 30.7298 9.67225   1
   2  18  32 26.4565 10.2678  -2
   9  21  29 26.4565 10.2678   1
   8  20  30 47.3918 9.90417  -2
   9  21  29 47.3918 9.90417   1
  10  18  30 26.2401 9.12870  -2
   9  21  29 26.2401 9.12870   1
   9  19  31 26.0184 4.58112  -2
  11  21  29 26.0184 4.58112   1
  12  20  30 9.03169 8.93861  -2
  11  21  29 9.03169 8.93861   1
   2  16  34 -0.9341 8.44874  -2
  11  21  29 -0.9341 8.44874   1
   3   5  37 -1.1242 6.20115  -2
  11  21  29 -1.1242 6.20115   1
   4   4  38 0.91789 9.92290  -2
  13  21  29 0.91789 9.92290   1
  13  21  29 -6.5041 4.22203  -2
  13  21  29 -6.5041 4.22203   1
  10  18  32 -5.7197 9.43124  -2
  13  21  29 -5.7197 9.43124   1
   1  15  35 40.3595 5.31452  -2
  13  21  29 40.3595 5.31452   1
   5  11  35 18.3725 5.80384  -2
   1  23  29 18.3725 5.80384   1
   6  12  34 14.3095 9.23165  -2
   1  23  29 14.3095 9.23165   1
   4  24  28 -6.2717 11.2598  -2
   1  23  29 -6.2717 11.2598   1
   4  26  26 11.2734 11.5569  -2
   1  23  29 11.2734 11.5569   1
   4  10  36 28.2262 9.32987  -2
   3  23  29 28.2262 9.32987   1
   5  25  27 -1.7684 4.62476  -2
   3  23  29 -1.7684 4.62476   1
   8  14  34 20.1160 9.42645  -2
   3  23  29 20.1160 9.42645   1
   3  23  29 -2.0116 4.72651  -2
   3  23  29 -2.0116 4.72651   1
   9  15  33 14.9520 5.58443  -2
   5  23  29 14.9520 5.58443   1
   6  24  28 11.8610 10.1216  -2
   5  23  29 11.8610 10.1216   1
   2   8  36 57.9077 9.13836  -2
   5  23  29 57.9077 9.13836   1
   2  22  30 40.8255 11.0339  -2
   5  23  29 40.8255 11.0339   1
   1   7  37 32.1781 4.71679  -2
   7  23  29 32.1781 4.71679   1
   6  22  30 41.1437 10.1527  -2
   7  23  29 41.1437 10.1527   1
  10  16  32 2.80410 9.79294  -2
   7  23  29 2.80410 9.79294   1
   2  20  32 10.9832 10.8497  -2
   7  23  29 10.9832 10.8497   1
   7  21  31 38.9622 6.02075  -2
   9  23  29 38.9622 6.02075   1
   1  19  33 5.52575 4.03757  -2
   9  23  29 5.52575 4.03757   1
   0   6  38 5.95420 9.92480  -2
   9  23  29 5.95420 9.92480   1
   3  27  27 9.02460 5.22842  -2
   1  25  29 9.02460 5.22842   1
   6  10  36 17.8693 9.48911  -2
   1  25  29 17.8693 9.48911   1
   2  26  28 12.8495 11.2045  -2
   1  25  29 12.8495 11.2045   1
   2  24  30 10.1547 11.1737  -2
   3  25  29 10.1547 11.1737   1
   5   9  37 11.7771 5.75024  -2
   3  25  29 11.7771 5.75024   1
   9  13  35 50.2882 6.50867  -2
   3  25  29 50.2882 6.50867   1
   4  26  28 -13.044 10.6953  -2
   3  25  29 -13.044 10.6953   1
  10  20  20 51.3413 5.23083  -2
   0   0  30 51.3413 5.23083   1
  11  19  21 0.35634 8.40671  -2
   0   2  30 0.35634 8.40671   1
   9  19  21 38.5950 7.49675  -2
   0   2  30 38.5950 7.49675   1
  10  18  22 25.8126 2.95702  -2
   2   2  30 25.8126 2.95702   1
   7  21  21 11.5026 9.51761  -2
   2   2  30 11.5026 9.51761   1
  13  19  19 53.6318 9.85241  -2
   2   2  30 53.6318 9.85241   1
   7  19  23 77.8700 7.27839  -2
   0   4  30 77.8700 7.27839   1
  13  17  21 75.2815 12.6525  -2
   0   4  30 75.2815 12.6525   1
   6  20  22 121.111 4.99523  -2
   2   4  30 121.111 4.99523   1
  11  17  23 147.066 9.53079  -2
   2   4  30 147.066 9.53079   1
  14  18  20 163.522 6.59389  -2
   2   4  30 163.522 6.59389   1
   9  17  23 132.395 10.0916  -2
   2   4  30 132.395 10.0916   1
  10  16  24 312.951 10.0570  -2
   4   4  30 312.951 10.0570   1
  15  19  19 405.172 16.0993  -2
   4   4  30 405.172 16.0993   1
   5  21  21 286.066 12.6744  -2
   4   4  30 286.066 12.6744   1
  14  16  22 122.300 6.47970  -2
   0   6  30 122.300 6.47970   1
   6  18  24 137.421 6.17502  -2
   0   6  30 137.421 6.17502   1
   7  17  25 195.203 11.4673  -2
   2   6  30 195.203 11.4673   1
   5  19  23 175.470 12.4398  -2
   2   6  30 175.470 12.4398   1
  15  17  21 226.797 12.9110  -2
   2   6  30 226.797 12.9110   1
  13  15  23 321.356 16.6206  -2
   2   6  30 321.356 16.6206   1
  11  15  25 484.776 15.0996  -2
   4   6  30 484.776 15.0996   1
   3  21  23 393.404 11.7018  -2
   4   6  30 393.404 11.7018   1
   9  15  25 373.094 15.6071  -2
   4   6  30 373.094 15.6071   1
  17  17  19 531.744 20.7959  -2
   4   6  30 531.744 20.7959   1
  10  14  26 547.541 16.5282  -2
   6   6  30 547.541 16.5282   1
   2  22  22 557.826 20.5946  -2
   6   6  30 557.826 20.5946   1
  18  18  18 682.719 20.1050  -2
   6   6  30 682.719 20.1050   1
  15  15  23 41.7881 10.8153  -2
   0   8  30 41.7881 10.8153   1
   5  17  25 28.0088 7.57683  -2
   0   8  30 28.0088 7.57683   1
  14  14  24 265.019 8.74852  -2
   2   8  30 265.019 8.74852   1
   6  16  26 101.494 5.17408  -2
   2   8  30 101.494 5.17408   1
   3  19  25 72.2839 8.55118  -2
   2   8  30 72.2839 8.55118   1
  15  17  21 89.1194 10.9992  -2
   2   8  30 89.1194 10.9992   1
  16  18  20 318.128 9.71559  -2
   4   8  30 318.128 9.71559   1
   2  20  24 250.050 7.47406  -2
   4   8  30 250.050 7.47406   1
  13  13  25 498.430 17.3153  -2
   4   8  30 498.430 17.3153   1
   7  15  27 233.980 12.3378  -2
   4   8  30 233.980 12.3378   1
   9  13  27 350.114 15.4040  -2
   6   8  30 350.114 15.4040   1
  17  19  19 506.918 15.6965  -2
   6   8  30 506.918 15.6965   1
  11  13  27 405.922 16.5438  -2
   6   8  30 405.922 16.5438   1
   1  21  23 438.549 12.3737  -2
   6   8  30 438.549 12.3737   1
  17  17  21 298.424 14.5506  -2
   8   8  30 298.424 14.5506   1
   1  23  23 372.492 18.0124  -2
   8   8  30 372.492 18.0124   1
  10  12  28 229.644 9.81857  -2
   8   8  30 229.644 9.81857   1
   3  17  27 29.1216 7.81981  -2
   0  10  30 29.1216 7.81981   1
  13  17  23 14.2095 10.1301  -2
   0  10  30 14.2095 10.1301   1
   5  15  27 49.9947 6.27558  -2
   2  10  30 49.9947 6.27558   1
   2  18  26 -3.6111 3.62987  -2
   2  10  30 -3.6111 3.62987   1
  13  15  25 130.323 12.4142  -2
   2  10  30 130.323 12.4142   1
  14  18  22 9.72482 3.34408  -2
   2  10  30 9.72482 3.34408   1
  12  14  26 232.077 8.38775  -2
   4  10  30 232.077 8.38775   1
   6  14  28 114.404 7.83469  -2
   4  10  30 114.404 7.83469   1
   1  19  25 104.026 8.18119  -2
   4  10  30 104.026 8.18119   1
  15  19  21 107.676 10.7049  -2
   4  10  30 107.676 10.7049   1
  15  19  21 172.084 9.24845  -2
   6  10  30 172.084 9.24845   1
   1  21  25 201.261 8.15502  -2
   6  10  30 201.261 8.15502   1
   7  13  29 174.246 13.4313  -2
   6  10  30 174.246 13.4313   1
  11  13  27 252.268 13.9288  -2
   6  10  30 252.268 13.9288   1
   2  22  24 191.638 6.92830  -2
   8  10  30 191.638 6.92830   1
  11  11  29 56.8032 10.0446  -2
   8  10  30 56.8032 10.0446   1
   9  11  29 70.4438 11.2831  -2
   8  10  30 70.4438 11.2831   1
  16  18  22 103.339 5.54770  -2
   8  10  30 103.339 5.54770   1
  17  17  23 29.8537 13.1074  -2
  10  10  30 29.8537 13.1074   1
   3  23  23 112.448 14.6604  -2
  10  10  30 112.448 14.6604   1
  10  10  30 15.5125 5.07062  -2
  10  10  30 15.5125 5.07062   1
  12  18  24 47.2813 4.88043  -2
   0  12  30 47.2813 4.88043   1
   2  16  28 31.5312 5.14843  -2
   0  12  30 31.5312 5.14843   1
   3  15  29 74.1706 7.39041  -2
   2  12  30 74.1706 7.39041   1
   1  17  27 -1.9810 8.09166  -2
   2  12  30 -1.9810 8.09166   1
  13  19  23 25.6644 8.98043  -2
   2  12  30 25.6644 8.98043   1
  11  17  25 14.7962 10.4716  -2
   2  12  30 14.7962 10.4716   1
  13  21  21 69.7674 9.50483  -2
   4  12  30 69.7674 9.50483   1
   5  13  29 92.1934 10.5013  -2
   4  12  30 92.1934 10.5013   1
   1  19  27 58.3553 7.58832  -2
   4  12  30 58.3553 7.58832   1
  11  15  27 77.4809 11.5160  -2
   4  12  30 77.4809 11.5160   1
   6  12  30 141.797 8.70458  -2
   6  12  30 141.797 8.70458   1
  10  14  28 96.8903 5.82171  -2
   6  12  30 96.8903 5.82171   1
   2  20  26 92.6547 5.66922  -2
   6  12  30 92.6547 5.66922   1
  14  20  22 100.113 6.33271  -2
   6  12  30 100.113 6.33271   1
   7  11  31 48.0438 11.7097  -2
   8  12  30 48.0438 11.7097   1
  15  19  23 41.7321 7.69237  -2
   8  12  30 41.7321 7.69237   1
   3  21  25 56.5452 6.91096  -2
   8  12  30 56.5452 6.91096   1
   9  13  29 42.8103 11.2920  -2
   8  12  30 42.8103 11.2920   1
   9   9  31 22.5517 10.5530  -2
  10  12  30 22.5517 10.5530   1
   5  23  25 9.06485 8.06810  -2
  10  12  30 9.06485 8.06810   1
  15  17  25 11.5766 7.37255  -2
  10  12  30 11.5766 7.37255   1
   9  11  31 14.4640 9.80946  -2
  10  12  30 14.4640 9.80946   1
  16  16  26 -1.4288 4.28485  -2
  12  12  30 -1.4288 4.28485   1
   8  10  32 22.1389 5.27600  -2
  12  12  30 22.1389 5.27600   1
   6  24  24 39.3777 7.44793  -2
  12  12  30 39.3777 7.44793   1
  11  19  25 46.5047 8.98585  -2
   0  14  30 46.5047 8.98585   1
   1  15  29 10.0567 8.34059  -2
   0  14  30 10.0567 8.34059   1
   1  17  29 87.3746 8.87590  -2
   2  14  30 87.3746 8.87590   1
  10  18  26 33.5896 4.63411  -2
   2  14  30 33.5896 4.63411   1
  11  21  23 79.8925 9.74258  -2
   2  14  30 79.8925 9.74258   1
   2  14  30 55.9734 5.60885  -2
   2  14  30 55.9734 5.60885   1
   2  18  28 159.314 7.74381  -2
   4  14  30 159.314 7.74381   1
   3  13  31 140.546 8.84587  -2
   4  14  30 140.546 8.84587   1
   9  17  27 131.452 12.5597  -2
   4  14  30 131.452 12.5597   1
  12  22  22 198.391 8.28498  -2
   4  14  30 198.391 8.28498   1
   5  11  31 216.785 13.5417  -2
   6  14  30 216.785 13.5417   1
   9  15  29 201.006 12.9614  -2
   6  14  30 201.006 12.9614   1
  13  21  23 231.335 11.5317  -2
   6  14  30 231.335 11.5317   1
   3  19  27 181.073 9.97116  -2
   6  14  30 181.073 9.97116   1
   6  10  32 117.066 8.23756  -2
   8  14  30 117.066 8.23756   1
   8  14  30 107.061 5.93375  -2
   8  14  30 107.061 5.93375   1
   5  21  27 88.6198 7.80680  -2
   8  14  30 88.6198 7.80680   1
  13  19  25 90.3709 10.8217  -2
   8  14  30 90.3709 10.8217   1
   6  22  26 12.6464 3.69695  -2
  10  14  30 12.6464 3.69695   1
   7  13  31 34.5553 10.1631  -2
  10  14  30 34.5553 10.1631   1
  14  18  26 19.1348 4.46877  -2
  10  14  30 19.1348 4.46877   1
   7   9  33 41.0872 10.4264  -2
  10  14  30 41.0872 10.4264   1
   7   9  33 13.4707 10.9761  -2
  12  14  30 13.4707 10.9761   1
  15  17  27 11.2210 9.21702  -2
  12  14  30 11.2210 9.21702   1
   7  11  33 8.36887 10.2639  -2
  12  14  30 8.36887 10.2639   1
   7  23  25 15.6777 8.28074  -2
  12  14  30 15.6777 8.28074   1
  15  15  29 29.6372 10.8285  -2
  14  14  30 29.6372 10.8285   1
   9  25  25 44.1986 12.8406  -2
  14  14  30 44.1986 12.8406   1
   6  10  34 4.27180 4.47022  -2
  14  14  30 4.27180 4.47022   1
   1  15  31 76.9336 8.73802  -2
   0  16  30 76.9336 8.73802   1
   9  21  25 71.1045 9.71682  -2
   0  16  30 71.1045 9.71682   1
  10  22  24 151.491 7.20654  -2
   2  16  30 151.491 7.20654   1
   2  16  30 167.891 8.09735  -2
   2  16  30 167.891 8.09735   1
   9  19  27 126.796 10.5015  -2
   2  16  30 126.796 10.5015   1
   1  13  31 113.651 9.54767  -2
   2  16  30 113.651 9.54767   1
   3  17  29 333.844 12.5723  -2
   4  16  30 333.844 12.5723   1
  11  23  23 306.342 14.2364  -2
   4  16  30 306.342 14.2364   1
   2  12  32 229.533 9.36531  -2
   4  16  30 229.533 9.36531   1
   8  18  28 284.086 9.91433  -2
   4  16  30 284.086 9.91433   1
   7  17  29 393.591 16.0974  -2
   6  16  30 393.591 16.0974   1
   3  11  33 259.480 11.8486  -2
   6  16  30 259.480 11.8486   1
  11  21  25 338.727 13.7504  -2
   6  16  30 338.727 13.7504   1
   5  19  29 416.355 13.9033  -2
   6  16  30 416.355 13.9033   1
   7  15  31 223.036 11.3713  -2
   8  16  30 223.036 11.3713   1
  12  20  26 159.517 7.74115  -2
   8  16  30 159.517 7.74115   1
   5   9  33 136.670 12.9096  -2
   8  16  30 136.670 12.9096   1
   6  20  28 213.341 8.15916  -2
   8  16  30 213.341 8.15916   1
   6  14  32 70.7468 5.22021  -2
  10  16  30 70.7468 5.22021   1
   6   8  34 70.0855 7.53221  -2
  10  16  30 70.0855 7.53221   1
  13  19  27 53.3498 9.32732  -2
  10  16  30 53.3498 9.32732   1
   7  21  27 59.5403 7.68200  -2
  10  16  30 59.5403 7.68200   1
  13  17  29 43.0403 9.46717  -2
  12  16  30 43.0403 9.46717   1
   7   7  35 15.2405 10.7126  -2
  12  16  30 15.2405 10.7126   1
   5  13  33 15.3690 10.1608  -2
  12  16  30 15.3690 10.1608   1
   9  23  27 28.3937 7.07288  -2
  12  16  30 28.3937 7.07288   1
  14  16  30 46.6856 4.73729  -2
  14  16  30 46.6856 4.73729   1
   5   9  35 34.2572 10.3315  -2
  14  16  30 34.2572 10.3315   1
   5  11  35 66.1251 9.94008  -2
  14  16  30 66.1251 9.94008   1
  10  24  26 94.3009 6.89867  -2
  14  16  30 94.3009 6.89867   1
   4  10  36 113.842 6.86777  -2
  16  16  30 113.842 6.86777   1
  15  15  31 98.5987 11.3674  -2
  16  16  30 98.5987 11.3674   1
  11  25  25 231.536 16.8615  -2
  16  16  30 231.536 16.8615   1
   8  22  26 75.4708 5.77409  -2
   0  18  30 75.4708 5.77409   1
   2  14  32 87.9337 6.24236  -2
   0  18  30 87.9337 6.24236   1
   1  13  33 164.599 10.0311  -2
   2  18  30 164.599 10.0311   1
   3  15  31 169.896 10.1919  -2
   2  18  30 169.896 10.1919   1
   9  23  25 150.480 11.2552  -2
   2  18  30 150.480 11.2552   1
   7  21  27 145.782 10.6419  -2
   2  18  30 145.782 10.6419   1
   1  11  33 279.494 12.4366  -2
   4  18  30 279.494 12.4366   1
   5  17  31 331.532 13.8670  -2
   4  18  30 331.532 13.8670   1
   7  19  29 331.767 13.3863  -2
   4  18  30 331.767 13.3863   1
   9  23  25 282.691 14.3622  -2
   4  18  30 282.691 14.3622   1
   6  18  30 399.048 8.56053  -2
   6  18  30 399.048 8.56053   1
  10  22  26 301.210 10.1738  -2
   6  18  30 301.210 10.1738   1
   2  10  34 322.990 12.0027  -2
   6  18  30 322.990 12.0027   1
   5  17  31 254.026 12.7065  -2
   8  18  30 254.026 12.7065   1
   7  19  29 247.248 11.7321  -2
   8  18  30 247.248 11.7321   1
  11  21  27 161.721 10.5393  -2
   8  18  30 161.721 10.5393   1
   3   9  35 186.693 12.0877  -2
   8  18  30 186.693 12.0877   1
  11  19  29 42.1744 10.1808  -2
  10  18  30 42.1744 10.1808   1
   5  15  33 40.9955 8.74110  -2
  10  18  30 40.9955 8.74110   1
   9  21  29 49.5861 9.05915  -2
  10  18  30 49.5861 9.05915   1
   5   7  35 30.6375 9.53997  -2
  10  18  30 30.6375 9.53997   1
  10  22  28 30.5819 4.71585  -2
  12  18  30 30.5819 4.71585   1
   4  14  34 39.6568 4.48557  -2
  12  18  30 39.6568 4.48557   1
   6   6  36 27.5400 4.94391  -2
  12  18  30 27.5400 4.94391   1
  12  18  30 35.0089 4.59482  -2
  12  18  30 35.0089 4.59482   1
  13  17  31 65.7619 9.43521  -2
  14  18  30 65.7619 9.43521   1
   5   7  37 45.7267 9.66691  -2
  14  18  30 45.7267 9.66691   1
   3  13  35 119.214 12.4672  -2
  14  18  30 119.214 12.4672   1
  11  23  27 97.8627 8.56007  -2
  14  18  30 97.8627 8.56007   1
  13  15  33 127.787 10.9811  -2
  16  18  30 127.787 10.9811   1
   3   9  37 150.787 11.3697  -2
  16  18  30 150.787 11.3697   1
   7  23  27 13.3472 8.89946  -2
   0  20  30 13.3472 8.89946   1
   3  13  33 40.2369 9.06287  -2
   0  20  30 40.2369 9.06287   1
   6  22  28 67.1737 6.03815  -2
   2  20  30 67.1737 6.03815   1
   7  25  25 64.4303 11.2940  -2
   2  20  30 64.4303 11.2940   1
   2  12  34 132.733 7.62903  -2
   2  20  30 132.733 7.62903   1
   5  15  33 62.9544 9.42222  -2
   2  20  30 62.9544 9.42222   1
   6  16  32 177.370 8.80445  -2
   4  20  30 177.370 8.80445   1
   5  21  29 179.665 10.8794  -2
   4  20  30 179.665 10.8794   1
   1  11  35 288.428 12.3180  -2
   4  20  30 288.428 12.3180   1
   8  24  26 146.730 7.34755  -2
   4  20  30 146.730 7.34755   1
   5  19  31 227.856 11.5065  -2
   6  20  30 227.856 11.5065   1
   9  23  27 165.153 11.6818  -2
   6  20  30 165.153 11.6818   1
   7  17  31 233.398 11.8693  -2
   6  20  30 233.398 11.8693   1
   1   9  35 202.791 10.6540  -2
   6  20  30 202.791 10.6540   1
   9  21  29 86.2799 11.9708  -2
   8  20  30 86.2799 11.9708   1
   2   8  36 110.577 6.56850  -2
   8  20  30 110.577 6.56850   1
   4  18  32 130.794 7.20801  -2
   8  20  30 130.794 7.20801   1
   9  19  31 98.6596 10.0529  -2
   8  20  30 98.6596 10.0529   1
  10  20  30 32.7740 3.46159  -2
  10  20  30 32.7740 3.46159   1
   3  17  33 16.0393 9.19209  -2
  10  20  30 16.0393 9.19209   1
   3   7  37 38.5439 8.92480  -2
  10  20  30 38.5439 8.92480   1
   3  15  35 26.9537 8.27975  -2
  12  20  30 26.9537 8.27975   1
  11  21  29 11.9619 9.03347  -2
  12  20  30 11.9619 9.03347   1
   5   5  37 7.18643 8.76207  -2
  12  20  30 7.18643 8.76207   1
  11  19  31 40.6913 8.89349  -2
  12  20  30 40.6913 8.89349   1
   5  25  27 19.2192 11.0134  -2
   0  22  30 19.2192 11.0134   1
   5  13  35 31.9031 9.44213  -2
   0  22  30 31.9031 9.44213   1
   3  11  35 72.4998 9.78456  -2
   2  22  30 72.4998 9.78456   1
   6  14  34 17.9198 5.81276  -2
   2  22  30 17.9198 5.81276   1
   5  23  29 12.8628 10.7099  -2
   2  22  30 12.8628 10.7099   1
   6  26  26 20.6901 6.11793  -2
   2  22  30 20.6901 6.11793   1
   2  10  36 132.908 7.98317  -2
   4  22  30 132.908 7.98317   1
   7  15  33 50.7575 9.92056  -2
   4  22  30 50.7575 9.92056   1
   7  25  27 41.8484 12.3669  -2
   4  22  30 41.8484 12.3669   1
   4  22  30 70.8538 5.70285  -2
   4  22  30 70.8538 5.70285   1
   7  23  29 39.4038 10.9863  -2
   6  22  30 39.4038 10.9863   1
   3  21  31 81.0522 11.8507  -2
   6  22  30 81.0522 11.8507   1
   1   9  37 117.038 12.3451  -2
   6  22  30 117.038 12.3451   1
   9  17  33 57.4379 9.90140  -2
   6  22  30 57.4379 9.90140   1
   3  19  33 29.9722 9.27057  -2
   8  22  30 29.9722 9.27057   1
   8  22  30 38.6447 5.28868  -2
   8  22  30 38.6447 5.28868   1
  10  18  32 32.0057 5.81218  -2
   8  22  30 32.0057 5.81218   1
   1   7  37 23.2285 10.6141  -2
   8  22  30 23.2285 10.6141   1
  11  19  31 8.98876 10.1588  -2
  10  22  30 8.98876 10.1588   1
   2   6  38 -2.3812 6.31176  -2
  10  22  30 -2.3812 6.31176   1
   9  21  31 38.3238 14.6996  -2
  10  22  30 38.3238 14.6996   1
   2  18  34 2.59899 4.60585  -2
  10  22  30 2.59899 4.60585   1
   4  26  28 0.87400 5.49754  -2
   0  24  30 0.87400 5.49754   1
   6  12  36 50.8007 6.45637  -2
   0  24  30 50.8007 6.45637   1
   7  13  35 27.0827 9.54826  -2
   2  24  30 27.0827 9.54826   1
   3  25  29 13.6778 11.2104  -2
   2  24  30 13.6778 11.2104   1
   5  27  27 2.84440 12.6416  -2
   2  24  30 2.84440 12.6416   1
  12  20  20 22.0696 9.55414  -2
   1   1  31 22.0696 9.55414   1
  10  20  22 0.57472 8.60009  -2
   1   1  31 0.57472 8.60009   1
   9  21  21 8.73989 5.00875  -2
   1   1  31 8.73989 5.00875   1
  13  19  21 16.1198 3.07185  -2
   1   3  31 16.1198 3.07185   1
   8  20  22 20.4507 7.43454  -2
   1   3  31 20.4507 7.43454   1
  12  18  22 -8.1498 9.07380  -2
   1   3  31 -8.1498 9.07380   1
   9  19  23 11.1589 2.77281  -2
   1   3  31 11.1589 2.77281   1
  14  20  20 133.130 8.59375  -2
   3   3  31 133.130 8.59375   1
  10  18  24 81.4257 7.65263  -2
   3   3  31 81.4257 7.65263   1
   6  22  22 85.8879 8.73661  -2
   3   3  31 85.8879 8.73661   1
   6  20  24 90.2268 8.54589  -2
   1   5  31 90.2268 8.54589   1
   8  18  24 91.6379 7.81969  -2
   1   5  31 91.6379 7.81969   1
  14  18  22 90.3464 10.7457  -2
   1   5  31 90.3464 10.7457   1
  13  17  23 109.235 7.15165  -2
   1   5  31 109.235 7.15165   1
   9  17  25 206.409 9.73458  -2
   3   5  31 206.409 9.73458   1
   5  21  23 193.622 7.03060  -2
   3   5  31 193.622 7.03060   1
  16  18  20 331.866 14.0986  -2
   3   5  31 331.866 14.0986   1
  12  16  24 294.772 13.9063  -2
   3   5  31 294.772 13.9063   1
  17  19  19 530.513 16.3245  -2
   5   5  31 530.513 16.3245   1
  10  16  26 387.643 16.0268  -2
   5   5  31 387.643 16.0268   1
   4  22  22 381.454 18.0334  -2
   5   5  31 381.454 18.0334   1
   6  18  26 109.520 7.32414  -2
   1   7  31 109.520 7.32414   1
  16  16  22 66.6600 10.5073  -2
   1   7  31 66.6600 10.5073   1
   5  19  25 75.4918 5.98645  -2
   1   7  31 75.4918 5.98645   1
  14  16  24 89.3395 12.1071  -2
   1   7  31 89.3395 12.1071   1
   4  20  24 175.135 11.4504  -2
   3   7  31 175.135 11.4504   1
  17  17  21 260.350 9.86390  -2
   3   7  31 260.350 9.86390   1
  13  15  25 287.585 10.6357  -2
   3   7  31 287.585 10.6357   1
   8  16  26 154.616 11.2108  -2
   3   7  31 154.616 11.2108   1
   2  22  24 416.592 12.0770  -2
   5   7  31 416.592 12.0770   1
  12  14  26 481.931 19.4604  -2
   5   7  31 481.931 19.4604   1
   9  15  27 323.064 12.2891  -2
   5   7  31 323.064 12.2891   1
  18  18  20 500.789 16.0804  -2
   5   7  31 500.789 16.0804   1
  10  14  28 308.400 14.8198  -2
   7   7  31 308.400 14.8198   1
   1  23  23 472.750 18.4740  -2
   7   7  31 472.750 18.4740   1
  18  18  20 450.378 22.3822  -2
   7   7  31 450.378 22.3822   1
   5  17  27 89.9698 5.47186  -2
   1   9  31 89.9698 5.47186   1
   4  18  26 6.03462 7.91119  -2
   1   9  31 6.03462 7.91119   1
  15  17  23 6.53824 3.48161  -2
   1   9  31 6.53824 3.48161   1
  14  16  24 48.8358 12.3243  -2
   1   9  31 48.8358 12.3243   1
   6  16  28 173.725 11.8089  -2
   3   9  31 173.725 11.8089   1
   2  20  26 57.7546 7.24478  -2
   3   9  31 57.7546 7.24478   1
  14  14  26 116.686 10.8530  -2
   3   9  31 116.686 10.8530   1
  16  18  22 88.9847 10.3365  -2
   3   9  31 88.9847 10.3365   1
   1  21  25 235.764 7.30397  -2
   5   9  31 235.764 7.30397   1
  13  13  27 245.470 8.42026  -2
   5   9  31 245.470 8.42026   1
   8  14  28 206.773 13.0653  -2
   5   9  31 206.773 13.0653   1
  16  20  20 258.362 11.3305  -2
   5   9  31 258.362 11.3305   1
   0  22  24 312.196 12.1012  -2
   7   9  31 312.196 12.1012   1
  12  12  28 197.541 13.2686  -2
   7   9  31 197.541 13.2686   1
   9  13  29 156.338 9.15113  -2
   7   9  31 156.338 9.15113   1
  17  19  21 233.483 7.37067  -2
   7   9  31 233.483 7.37067   1
  10  12  30 71.1016 11.0833  -2
   9   9  31 71.1016 11.0833   1
   2  24  24 227.635 15.3861  -2
   9   9  31 227.635 15.3861   1
  18  18  22 91.3288 14.6976  -2
   9   9  31 91.3288 14.6976   1
   4  16  28 95.6734 8.46744  -2
   1  11  31 95.6734 8.46744   1
  13  17  25 39.1589 4.46351  -2
   1  11  31 39.1589 4.46351   1
   2  18  28 31.4163 8.38941  -2
   1  11  31 31.4163 8.38941   1
  14  18  24 -4.1757 10.6058  -2
   1  11  31 -4.1757 10.6058   1
   5  15  29 120.129 8.38372  -2
   3  11  31 120.129 8.38372   1
   1  19  27 13.4147 4.24687  -2
   3  11  31 13.4147 4.24687   1
  14  20  22 20.1204 9.33647  -2
   3  11  31 20.1204 9.33647   1
  12  16  26 54.4611 11.4706  -2
   3  11  31 54.4611 11.4706   1
  15  21  21 78.2495 5.24434  -2
   5  11  31 78.2495 5.24434   1
   6  14  30 179.755 13.1950  -2
   5  11  31 179.755 13.1950   1
   0  20  26 105.178 8.25135  -2
   5  11  31 105.178 8.25135   1
  12  14  28 99.9573 10.8139  -2
   5  11  31 99.9573 10.8139   1
  16  20  22 69.1072 8.29630  -2
   7  11  31 69.1072 8.29630   1
   8  12  30 64.5791 11.9937  -2
   7  11  31 64.5791 11.9937   1
   2  22  26 114.461 7.42074  -2
   7  11  31 114.461 7.42074   1
  11  13  29 74.8607 4.94878  -2
   7  11  31 74.8607 4.94878   1
   9  11  31 27.6961 6.02314  -2
   9  11  31 27.6961 6.02314   1
  16  18  24 26.0719 7.89257  -2
   9  11  31 26.0719 7.89257   1
  10  12  30 7.02158 9.64880  -2
   9  11  31 7.02158 9.64880   1
   3  23  25 99.9792 6.82006  -2
   9  11  31 99.9792 6.82006   1
   4  24  24 92.3157 12.4400  -2
  11  11  31 92.3157 12.4400   1
  10  10  32 -3.8546 9.43423  -2
  11  11  31 -3.8546 9.43423   1
  17  17  25 1.59591 4.00528  -2
  11  11  31 1.59591 4.00528   1
   2  16  30 49.6304 8.42418  -2
   1  13  31 49.6304 8.42418   1
   1  17  29 42.9238 5.24215  -2
   1  13  31 42.9238 5.24215   1
  12  20  24 36.1305 9.02035  -2
   1  13  31 36.1305 9.02035   1
  12  18  26 11.7750 11.2500  -2
   1  13  31 11.7750 11.2500   1
  11  17  27 19.7196 4.27356  -2
   3  13  31 19.7196 4.27356   1
   0  18  28 45.3857 7.90111  -2
   3  13  31 45.3857 7.90111   1
   4  14  30 78.1166 7.69697  -2
   3  13  31 78.1166 7.69697   1
  13  21  23 89.7421 5.88205  -2
   3  13  31 89.7421 5.88205   1
  10  16  28 84.6445 12.3839  -2
   5  13  31 84.6445 12.3839   1
   2  20  28 101.833 8.51585  -2
   5  13  31 101.833 8.51585   1
   5  13  31 109.229 8.57578  -2
   5  13  31 109.229 8.57578   1
  14  22  22 134.486 9.83204  -2
   5  13  31 134.486 9.83204   1
  10  14  30 79.4801 10.8891  -2
   7  13  31 79.4801 10.8891   1
   6  12  32 83.6998 11.4193  -2
   7  13  31 83.6998 11.4193   1
  14  20  24 84.6105 9.11577  -2
   7  13  31 84.6105 9.11577   1
   3  21  27 56.4313 4.74302  -2
   7  13  31 56.4313 4.74302   1
   8  10  32 51.2316 11.3722  -2
   9  13  31 51.2316 11.3722   1
   9  13  31 22.8039 3.57472  -2
   9  13  31 22.8039 3.57472   1
  15  19  25 16.7073 4.47509  -2
   9  13  31 16.7073 4.47509   1
   4  22  26 17.1378 6.22314  -2
   9  13  31 17.1378 6.22314   1
   9   9  33 -4.1883 4.64384  -2
  11  13  31 -4.1883 4.64384   1
   8  12  32 13.6990 11.0749  -2
  11  13  31 13.6990 11.0749   1
   6  24  26 2.26276 8.48041  -2
  11  13  31 2.26276 8.48041   1
  16  18  26 15.1975 7.71792  -2
  11  13  31 15.1975 7.71792   1
   8  10  34 -14.913 10.5098  -2
  13  13  31 -14.913 10.5098   1
  16  16  28 24.7795 10.3309  -2
  13  13  31 24.7795 10.3309   1
   7  25  25 23.6541 7.35248  -2
  13  13  31 23.6541 7.35248   1
   1  15  31 19.9306 4.74314  -2
   1  15  31 19.9306 4.74314   1
   0  16  30 42.8631 8.92805  -2
   1  15  31 42.8631 8.92805   1
  11  21  25 75.1300 5.45122  -2
   1  15  31 75.1300 5.45122   1
  10  20  26 20.7053 8.98615  -2
   1  15  31 20.7053 8.98615   1
   2  18  30 129.180 9.48853  -2
   3  15  31 129.180 9.48853   1
   2  14  32 68.2093 8.67082  -2
   3  15  31 68.2093 8.67082   1
  12  22  24 160.292 11.8709  -2
   3  15  31 160.292 11.8709   1
  10  18  28 65.5455 9.82404  -2
   3  15  31 65.5455 9.82404   1
   3  19  29 225.647 9.07612  -2
   5  15  31 225.647 9.07612   1
   9  17  29 192.602 7.94866  -2
   5  15  31 192.602 7.94866   1
   4  12  32 144.996 12.8480  -2
   5  15  31 144.996 12.8480   1
  12  22  24 260.271 12.6825  -2
   5  15  31 260.271 12.6825   1
   8  16  30 251.382 15.7528  -2
   7  15  31 251.382 15.7528   1
  13  21  25 186.913 8.68659  -2
   7  15  31 186.913 8.68659   1
   4  20  28 198.408 10.3734  -2
   7  15  31 198.408 10.3734   1
   5  11  33 126.878 8.69813  -2
   7  15  31 126.878 8.69813   1
   8  14  32 65.8106 11.2752  -2
   9  15  31 65.8106 11.2752   1
   6  22  28 40.0051 7.47766  -2
   9  15  31 40.0051 7.47766   1
   6  10  34 42.4984 11.6293  -2
   9  15  31 42.4984 11.6293   1
  14  20  26 48.6157 10.2705  -2
   9  15  31 48.6157 10.2705   1
   8   8  34 11.7993 11.3193  -2
  11  15  31 11.7993 11.3193   1
  14  18  28 -5.0316 8.87563  -2
  11  15  31 -5.0316 8.87563   1
   7  23  27 11.3955 4.37684  -2
  11  15  31 11.3955 4.37684   1
   7  13  33 8.16454 4.69228  -2
  11  15  31 8.16454 4.69228   1
   6  12  34 7.46829 10.6558  -2
  13  15  31 7.46829 10.6558   1
   8  24  26 12.8475 8.97537  -2
  13  15  31 12.8475 8.97537   1
   7   9  35 1.73385 4.67506  -2
  13  15  31 1.73385 4.67506   1
  15  17  29 47.3220 5.48537  -2
  13  15  31 47.3220 5.48537   1
  16  16  30 55.3451 11.0155  -2
  15  15  31 55.3451 11.0155   1
  10  26  26 30.3317 13.3321  -2
  15  15  31 30.3317 13.3321   1
   6  10  36 36.1665 9.50744  -2
  15  15  31 36.1665 9.50744   1
  10  22  26 59.5407 10.6715  -2
   1  17  31 59.5407 10.6715   1
   0  14  32 45.8975 9.49628  -2
   1  17  31 45.8975 9.49628   1
   2  16  32 9.48608 8.59706  -2
   1  17  31 9.48608 8.59706   1
   9  21  27 42.7875 4.85695  -2
   1  17  31 42.7875 4.85695   1
   3  17  31 158.310 7.97791  -2
   3  17  31 158.310 7.97791   1
  10  24  24 206.746 12.9426  -2
   3  17  31 206.746 12.9426   1
   1  13  33 147.820 7.63482  -2
   3  17  31 147.820 7.63482   1
   8  20  28 130.279 10.2241  -2
   3  17  31 130.279 10.2241   1
   2  12  34 288.066 14.7758  -2
   5  17  31 288.066 14.7758   1
   4  18  30 319.726 12.8901  -2
   5  17  31 319.726 12.8901   1
  11  23  25 284.958 10.2877  -2
   5  17  31 284.958 10.2877   1
   8  18  30 267.744 13.7274  -2
   5  17  31 267.744 13.7274   1
  12  22  26 231.953 12.5614  -2
   7  17  31 231.953 12.5614   1
   6  20  30 257.870 11.8103  -2
   7  17  31 257.870 11.8103   1
   7  17  31 234.476 8.77283  -2
   7  17  31 234.476 8.77283   1
   4  10  34 187.237 13.9907  -2
   7  17  31 187.237 13.9907   1
  12  20  28 53.7196 10.3885  -2
   9  17  31 53.7196 10.3885   1
   7  21  29 78.8689 5.91343  -2
   9  17  31 78.8689 5.91343   1
   5   9  35 61.6852 7.41947  -2
   9  17  31 61.6852 7.41947   1
   6  16  32 102.421 12.9089  -2
   9  17  31 102.421 12.9089   1
   8  22  28 15.6532 7.52140  -2
  11  17  31 15.6532 7.52140   1
   6   8  36 27.9907 10.4199  -2
  11  17  31 27.9907 10.4199   1
  13  19  29 24.2898 4.76998  -2
  11  17  31 24.2898 4.76998   1
   6  14  34 19.5546 10.4303  -2
  11  17  31 19.5546 10.4303   1
   6   8  36 14.8672 10.0039  -2
  13  17  31 14.8672 10.0039   1
  14  18  30 34.4915 8.96592  -2
  13  17  31 34.4915 8.96592   1
   5  13  35 43.6924 5.82045  -2
  13  17  31 43.6924 5.82045   1
  10  24  28 14.0402 9.10129  -2
  13  17  31 14.0402 9.10129   1
  11  25  27 69.7897 6.66699  -2
  15  17  31 69.7897 6.66699   1
  14  16  32 36.2263 8.88287  -2
  15  17  31 36.2263 8.88287   1
   4  12  36 118.124 11.2786  -2
  15  17  31 118.124 11.2786   1
   5   9  37 46.9464 5.74488  -2
  15  17  31 46.9464 5.74488   1
   3  15  33 48.2280 5.81499  -2
   1  19  31 48.2280 5.81499   1
   8  22  28 59.7893 10.1489  -2
   1  19  31 59.7893 10.1489   1
   2  14  34 83.4628 9.64588  -2
   1  19  31 83.4628 9.64588   1
   8  24  26 62.3293 12.1503  -2
   1  19  31 62.3293 12.1503   1
   9  25  25 145.325 7.45499  -2
   3  19  31 145.325 7.45499   1
   0  12  34 199.806 11.0726  -2
   3  19  31 199.806 11.0726   1
   7  21  29 120.131 6.75915  -2
   3  19  31 120.131 6.75915   1
   4  16  32 130.009 10.2660  -2
   3  19  31 130.009 10.2660   1
   1  11  35 287.069 12.5531  -2
   5  19  31 287.069 12.5531   1
   6  20  30 258.500 12.1658  -2
   5  19  31 258.500 12.1658   1
   6  18  32 283.085 12.6325  -2
   5  19  31 283.085 12.6325   1
  10  24  26 247.701 13.2219  -2
   5  19  31 247.701 13.2219   1
  10  22  28 137.896 12.2854  -2
   7  19  31 137.896 12.2854   1
   7  19  31 228.284 9.63936  -2
   7  19  31 228.284 9.63936   1
   6  18  32 232.665 13.0810  -2
   7  19  31 232.665 13.0810   1
   2  10  36 269.973 15.8876  -2
   7  19  31 269.973 15.8876   1
   4   8  36 63.6670 9.76655  -2
   9  19  31 63.6670 9.76655   1
  11  21  29 56.3419 5.58054  -2
   9  19  31 56.3419 5.58054   1
   5  17  33 76.0235 5.90076  -2
   9  19  31 76.0235 5.90076   1
   8  20  30 99.2406 10.2846  -2
   9  19  31 99.2406 10.2846   1
  12  20  30 19.0012 10.1256  -2
  11  19  31 19.0012 10.1256   1
  10  22  30 30.5079 9.03551  -2
  11  19  31 30.5079 9.03551   1
   5   7  37 11.2163 5.10410  -2
  11  19  31 11.2163 5.10410   1
   4  16  34 15.2562 8.67778  -2
  11  19  31 15.2562 8.67778   1
   4  14  34 39.6598 9.51288  -2
   1  21  31 39.6598 9.51288   1
   7  25  27 32.8938 5.18434  -2
   1  21  31 32.8938 5.18434   1
   6  24  28 45.9670 10.3235  -2
   1  21  31 45.9670 10.3235   1
   3  13  35 109.424 7.66292  -2
   1  21  31 109.424 7.66292   1
   6  22  30 90.0836 10.2521  -2
   3  21  31 90.0836 10.2521   1
   8  26  26 64.0382 10.4675  -2
   3  21  31 64.0382 10.4675   1
   6  16  34 65.2193 9.84332  -2
   3  21  31 65.2193 9.84332   1
   2  12  36 183.703 11.1668  -2
   3  21  31 183.703 11.1668   1
   5  21  31 168.090 7.86010  -2
   5  21  31 168.090 7.86010   1
   7  17  33 119.788 7.92329  -2
   5  21  31 119.788 7.92329   1
   0  10  36 210.267 13.9261  -2
   5  21  31 210.267 13.9261   1
   8  24  28 102.141 11.5018  -2
   5  21  31 102.141 11.5018   1
   4  20  32 119.501 10.2534  -2
   7  21  31 119.501 10.2534   1
   9  23  29 63.4941 6.20964  -2
   7  21  31 63.4941 6.20964   1
   8  18  32 128.991 10.7976  -2
   7  21  31 128.991 10.7976   1
   1   9  37 149.929 9.93242  -2
   7  21  31 149.929 9.93242   1
  10  22  30 37.5246 13.8611  -2
   9  21  31 37.5246 13.8611   1
  11  21  21 89.1869 11.0510  -2
   0   0  32 89.1869 11.0510   1
   9  21  23 20.8529 6.62841  -2
   0   2  32 20.8529 6.62841   1
  12  20  22 26.3559 3.56520  -2
   0   2  32 26.3559 3.56520   1
  11  19  23 4.38321 7.76835  -2
   2   2  32 4.38321 7.76835   1
  13  21  21 5.83473 9.02534  -2
   2   2  32 5.83473 9.02534   1
   8  22  22 8.41416 4.27367  -2
   2   2  32 8.41416 4.27367   1
   8  20  24 6.55231 3.81309  -2
   0   4  32 6.55231 3.81309   1
  13  19  23 30.5803 10.2546  -2
   0   4  32 30.5803 10.2546   1
   7  21  23 36.8794 9.71196  -2
   2   4  32 36.8794 9.71196   1
  15  19  21 48.4869 8.26999  -2
   2   4  32 48.4869 8.26999   1
   9  19  25 30.8234 9.17278  -2
   2   4  32 30.8234 9.17278   1
  12  18  24 69.8545 6.23501  -2
   2   4  32 69.8545 6.23501   1
  16  20  20 167.406 8.19759  -2
   4   4  32 167.406 8.19759   1
  11  17  25 153.940 12.7808  -2
   4   4  32 153.940 12.7808   1
   5  23  23 156.288 13.2019  -2
   4   4  32 156.288 13.2019   1
  15  17  23 24.1431 10.2733  -2
   0   6  32 24.1431 10.2733   1
   7  19  25 26.7956 6.78261  -2
   0   6  32 26.7956 6.78261   1
   8  18  26 71.1016 6.94435  -2
   2   6  32 71.1016 6.94435   1
   5  21  25 67.2103 8.71105  -2
   2   6  32 67.2103 8.71105   1
  13  17  25 88.9849 10.4312  -2
   2   6  32 88.9849 10.4312   1
  16  18  22 76.4676 5.82316  -2
   2   6  32 76.4676 5.82316   1
   9  17  27 156.868 12.0221  -2
   4   6  32 156.868 12.0221   1
  17  19  21 275.483 14.2132  -2
   4   6  32 275.483 14.2132   1
   4  22  24 226.933 7.03975  -2
   4   6  32 226.933 7.03975   1
  12  16  26 207.581 8.29643  -2
   4   6  32 207.581 8.29643   1
  11  15  27 271.753 16.9285  -2
   6   6  32 271.753 16.9285   1
  19  19  19 420.400 27.6344  -2
   6   6  32 420.400 27.6344   1
   3  23  23 374.411 18.1762  -2
   6   6  32 374.411 18.1762   1
   5  19  27 58.2821 8.19390  -2
   0   8  32 58.2821 8.19390   1
  16  16  24 0.79974 3.79573  -2
   0   8  32 0.79974 3.79573   1
  17  17  23 -7.6408 9.89560  -2
   2   8  32 -7.6408 9.89560   1
   7  17  27 85.7794 10.5245  -2
   2   8  32 85.7794 10.5245   1
  15  15  25 42.8208 11.2814  -2
   2   8  32 42.8208 11.2814   1
   4  20  26 13.4009 4.14463  -2
   2   8  32 13.4009 4.14463   1
  13  15  27 134.647 11.3419  -2
   4   8  32 134.647 11.3419   1
   3  21  25 126.465 7.97521  -2
   4   8  32 126.465 7.97521   1
   8  16  28 155.723 8.91040  -2
   4   8  32 155.723 8.91040   1
  17  19  21 188.700 12.4442  -2
   4   8  32 188.700 12.4442   1
  18  20  20 291.188 9.96881  -2
   6   8  32 291.188 9.96881   1
   1  23  25 333.875 12.4118  -2
   6   8  32 333.875 12.4118   1
  12  14  28 190.678 10.5465  -2
   6   8  32 190.678 10.5465   1
   9  15  29 204.091 13.2615  -2
   6   8  32 204.091 13.2615   1
   0  24  24 353.275 15.8230  -2
   8   8  32 353.275 15.8230   1
  11  13  29 143.383 12.3084  -2
   8   8  32 143.383 12.3084   1
  19  19  21 167.817 15.7200  -2
   8   8  32 167.817 15.7200   1
   4  18  28 121.251 7.04126  -2
   0  10  32 121.251 7.04126   1
  15  17  25 -13.076 10.2726  -2
   0  10  32 -13.076 10.2726   1
   3  19  27 11.2028 8.27831  -2
   2  10  32 11.2028 8.27831   1
  14  16  26 18.0045 3.64029  -2
   2  10  32 18.0045 3.64029   1
   5  17  29 166.332 11.9219  -2
   2  10  32 166.332 11.9219   1
  15  19  23 6.73146 11.0848  -2
   2  10  32 6.73146 11.0848   1
   7  15  29 116.659 11.1315  -2
   4  10  32 116.659 11.1315   1
  13  15  27 34.8137 11.1733  -2
   4  10  32 34.8137 11.1733   1
  16  20  22 34.8925 3.95978  -2
   4  10  32 34.8925 3.95978   1
   1  21  27 54.2019 7.52947  -2
   4  10  32 54.2019 7.52947   1
   8  14  30 117.618 8.22252  -2
   6  10  32 117.618 8.22252   1
   0  22  26 149.429 6.72160  -2
   6  10  32 149.429 6.72160   1
  17  21  21 79.3157 8.51154  -2
   6  10  32 79.3157 8.51154   1
  13  13  29 72.8201 10.7484  -2
   6  10  32 72.8201 10.7484   1
   1  23  25 175.106 10.2204  -2
   8  10  32 175.106 10.2204   1
   9  13  31 42.5545 11.0278  -2
   8  10  32 42.5545 11.0278   1
  12  12  30 51.9675 5.90771  -2
   8  10  32 51.9675 5.90771   1
  17  19  23 32.2909 7.23278  -2
   8  10  32 32.2909 7.23278   1
  11  11  31 17.0585 10.5999  -2
  10  10  32 17.0585 10.5999   1
   3  25  25 54.4537 12.4093  -2
  10  10  32 54.4537 12.4093   1
  18  18  24 12.8302 6.44653  -2
  10  10  32 12.8302 6.44653   1
  13  19  25 35.7887 11.1596  -2
   0  12  32 35.7887 11.1596   1
   3  17  29 140.321 9.83364  -2
   0  12  32 140.321 9.83364   1
   1  19  29 32.1469 7.78595  -2
   2  12  32 32.1469 7.78595   1
   4  16  30 116.683 6.89964  -2
   2  12  32 116.683 6.89964   1
  14  20  24 33.7069 4.55398  -2
   2  12  32 33.7069 4.55398   1
  13  17  27 11.8748 10.7823  -2
   2  12  32 11.8748 10.7823   1
  15  21  23 7.20739 9.19483  -2
   4  12  32 7.20739 9.19483   1
   5  15  31 72.6904 10.8913  -2
   4  12  32 72.6904 10.8913   1
   0  20  28 9.91617 4.66471  -2
   4  12  32 9.91617 4.66471   1
  12  16  28 3.37972 3.78456  -2
   4  12  32 3.37972 3.78456   1
   7  13  31 56.9853 11.0829  -2
   6  12  32 56.9853 11.0829   1
  11  15  29 40.5807 12.2442  -2
   6  12  32 40.5807 12.2442   1
  15  21  23 54.5348 8.92738  -2
   6  12  32 54.5348 8.92738   1
   1  21  27 39.9815 7.70778  -2
   6  12  32 39.9815 7.70778   1
  16  20  24 15.2831 4.44372  -2
   8  12  32 15.2831 4.44372   1
   3  23  27 29.2179 9.05867  -2
   8  12  32 29.2179 9.05867   1
   8  12  32 8.25344 6.08730  -2
   8  12  32 8.25344 6.08730   1
  11  13  31 14.8071 10.1845  -2
   8  12  32 14.8071 10.1845   1
   9  11  33 -10.187 10.7809  -2
  10  12  32 -10.187 10.7809   1
  17  19  25 -7.4472 9.51737  -2
  10  12  32 -7.4472 9.51737   1
   4  24  26 20.5758 5.44072  -2
  10  12  32 20.5758 5.44072   1
  10  12  32 4.54972 4.78236  -2
  10  12  32 4.54972 4.78236   1
   9  11  33 10.7360 10.5571  -2
  12  12  32 10.7360 10.5571   1
   5  25  25 20.7417 12.4483  -2
  12  12  32 20.7417 12.4483   1
  17  17  27 40.0687 16.0940  -2
  12  12  32 40.0687 16.0940   1
  12  20  26 13.9550 4.54598  -2
   0  14  32 13.9550 4.54598   1
   1  17  31 21.5521 8.09699  -2
   0  14  32 21.5521 8.09699   1
  13  21  25 46.5701 10.1607  -2
   2  14  32 46.5701 10.1607   1
   3  15  31 32.6971 8.12625  -2
   2  14  32 32.6971 8.12625   1
   0  18  30 30.3619 5.38771  -2
   2  14  32 30.3619 5.38771   1
  11  19  27 8.70998 8.93965  -2
   2  14  32 8.70998 8.93965   1
  13  23  23 165.038 11.8451  -2
   4  14  32 165.038 11.8451   1
   1  19  29 52.9176 8.43834  -2
   4  14  32 52.9176 8.43834   1
   4  14  32 27.5952 6.36677  -2
   4  14  32 27.5952 6.36677   1
  11  17  29 23.0464 11.7426  -2
   4  14  32 23.0464 11.7426   1
  14  22  24 115.697 7.35134  -2
   6  14  32 115.697 7.35134   1
   3  21  29 52.7812 8.47306  -2
   6  14  32 52.7812 8.47306   1
   5  13  33 54.5181 12.0107  -2
   6  14  32 54.5181 12.0107   1
  10  16  30 69.5219 5.55643  -2
   6  14  32 69.5219 5.55643   1
   7  11  33 35.1864 13.8191  -2
   8  14  32 35.1864 13.8191   1
  15  21  25 24.5049 8.74054  -2
   8  14  32 24.5049 8.74054   1
   9  15  31 40.6044 13.8565  -2
   8  14  32 40.6044 13.8565   1
   4  22  28 27.4530 4.29075  -2
   8  14  32 27.4530 4.29075   1
  15  19  27 30.3826 8.82273  -2
  10  14  32 30.3826 8.82273   1
   8  10  34 -1.8840 5.76314  -2
  10  14  32 -1.8840 5.76314   1
   5  23  27 0.81849 8.55009  -2
  10  14  32 0.81849 8.55009   1
   9  13  33 -17.820 10.4458  -2
  10  14  32 -17.820 10.4458   1
   8  12  34 27.2090 5.79705  -2
  12  14  32 27.2090 5.79705   1
  16  18  28 48.2634 5.70153  -2
  12  14  32 48.2634 5.70153   1
   7  25  27 -2.6830 8.84519  -2
  12  14  32 -2.6830 8.84519   1
   9   9  35 33.8320 11.4932  -2
  12  14  32 33.8320 11.4932   1
   8  26  26 21.6888 8.18252  -2
  14  14  32 21.6888 8.18252   1
   7  11  35 31.7091 11.4636  -2
  14  14  32 31.7091 11.4636   1
  17  17  29 71.4024 15.6923  -2
  14  14  32 71.4024 15.6923   1
   0  16  32 1.99446 4.78412  -2
   0  16  32 1.99446 4.78412   1
  11  21  27 -4.5152 9.80993  -2
   0  16  32 -4.5152 9.80993   1
   1  15  33 25.7251 8.26124  -2
   2  16  32 25.7251 8.26124   1
   1  17  31 15.5526 8.44644  -2
   2  16  32 15.5526 8.44644   1
  10  20  28 2.86806 3.97100  -2
   2  16  32 2.86806 3.97100   1
  11  23  25 89.5574 11.5218  -2
   2  16  32 89.5574 11.5218   1
   3  13  33 54.8753 11.3773  -2
   4  16  32 54.8753 11.3773   1
   9  19  29 52.1348 9.80698  -2
   4  16  32 52.1348 9.80698   1
  12  24  24 187.625 9.19655  -2
   4  16  32 187.625 9.19655   1
   3  19  31 123.420 9.81923  -2
   4  16  32 123.420 9.81923   1
   4  20  30 146.084 7.82607  -2
   6  16  32 146.084 7.82607   1
   9  17  31 98.6392 10.0411  -2
   6  16  32 98.6392 10.0411   1
   4  12  34 103.307 8.20568  -2
   6  16  32 103.307 8.20568   1
  13  23  25 167.936 11.2662  -2
   6  16  32 167.936 11.2662   1
   5  21  29 70.0829 8.84766  -2
   8  16  32 70.0829 8.84766   1
  13  21  27 29.8995 9.83828  -2
   8  16  32 29.8995 9.83828   1
   8  16  32 65.7229 5.36796  -2
   8  16  32 65.7229 5.36796   1
   5  11  35 109.872 12.8169  -2
   8  16  32 109.872 12.8169   1
  14  20  28 -2.6724 4.38362  -2
  10  16  32 -2.6724 4.38362   1
   7  15  33 10.7515 11.9218  -2
  10  16  32 10.7515 11.9218   1
   7   9  35 2.33600 11.2113  -2
  10  16  32 2.33600 11.2113   1
   7  23  29 9.53286 9.92658  -2
  10  16  32 9.53286 9.92658   1
   7  13  35 23.9236 10.6607  -2
  12  16  32 23.9236 10.6607   1
   8   8  36 3.30924 6.40321  -2
  12  16  32 3.30924 6.40321   1
   8  24  28 2.10271 4.82173  -2
  12  16  32 2.10271 4.82173   1
  15  19  29 42.6269 9.22727  -2
  12  16  32 42.6269 9.22727   1
   9  25  27 11.8586 9.44473  -2
  14  16  32 11.8586 9.44473   1
   6  12  36 40.7181 5.45411  -2
  14  16  32 40.7181 5.45411   1
  15  17  31 7.23969 9.25036  -2
  14  16  32 7.23969 9.25036   1
   1  15  33 33.0162 8.98255  -2
   0  18  32 33.0162 8.98255   1
   9  23  27 19.5630 9.54550  -2
   0  18  32 19.5630 9.54550   1
   3  17  33 31.6267 9.26320  -2
   2  18  32 31.6267 9.26320   1
   9  21  29 41.5217 10.0738  -2
   2  18  32 41.5217 10.0738   1
   0  14  34 131.083 7.66308  -2
   2  18  32 131.083 7.66308   1
  10  24  26 94.5138 6.30846  -2
   2  18  32 94.5138 6.30846   1
  11  25  25 201.875 12.5742  -2
   4  18  32 201.875 12.5742   1
   1  13  35 222.343 12.8931  -2
   4  18  32 222.343 12.8931   1
   8  20  30 141.145 7.28051  -2
   4  18  32 141.145 7.28051   1
   4  18  32 175.469 8.74433  -2
   4  18  32 175.469 8.74433   1
   7  19  31 223.135 12.7732  -2
   6  18  32 223.135 12.7732   1
   3  11  35 177.917 14.4176  -2
   6  18  32 177.917 14.4176   1
  11  23  27 187.976 11.4137  -2
   6  18  32 187.976 11.4137   1
   5  19  31 226.859 11.6527  -2
   6  18  32 226.859 11.6527   1
   4  10  36 126.929 9.77189  -2
   8  18  32 126.929 9.77189   1
   7  21  31 131.275 10.4704  -2
   8  18  32 131.275 10.4704   1
  12  22  28 79.7463 6.69931  -2
   8  18  32 79.7463 6.69931   1
   7  17  33 114.161 10.2049  -2
   8  18  32 114.161 10.2049   1
   6  16  34 17.5822 4.27048  -2
  10  18  32 17.5822 4.27048   1
   5   9  37 24.7309 10.0447  -2
  10  18  32 24.7309 10.0447   1
  13  21  29 36.3289 9.23210  -2
  10  18  32 36.3289 9.23210   1
   8  22  30 26.8068 4.82990  -2
  10  18  32 26.8068 4.82990   1
   8  24  28 17.6737 4.76406  -2
   0  20  32 17.6737 4.76406   1
   3  15  35 54.3796 9.67032  -2
   0  20  32 54.3796 9.67032   1
   9  25  27 48.1100 10.0802  -2
   2  20  32 48.1100 10.0802   1
   7  23  29 47.1138 10.1551  -2
   2  20  32 47.1138 10.1551   1
   1  13  35 191.622 11.2327  -2
   2  20  32 191.622 11.2327   1
   4  16  34 32.9023 6.26293  -2
   2  20  32 32.9023 6.26293   1
   9  25  27 86.6011 13.1746  -2
   4  20  32 86.6011 13.1746   1
   5  17  33 112.645 10.3196  -2
   4  20  32 112.645 10.3196   1
   7  21  31 133.668 11.0568  -2
   4  20  32 133.668 11.0568   1
   0  12  36 224.679 9.63240  -2
   4  20  32 224.679 9.63240   1
   6  20  32 164.895 8.29655  -2
   6  20  32 164.895 8.29655   1
  10  24  28 107.065 6.83894  -2
   6  20  32 107.065 6.83894   1
   8  20  32 108.973 11.9509  -2
   8  20  32 108.973 11.9509   1
   5  19  33 64.6066 15.5542  -2
   8  20  32 64.6066 15.5542   1
   3   9  37 69.0318 23.6014  -2
   8  20  32 69.0318 23.6014   1
  10  22  22 168.752 20.8600  -2
   1   1  33 168.752 20.8600   1
  11  21  23 152.914 6.27550  -2
   1   1  33 152.914 6.27550   1
  12  22  22 189.537 20.6892  -2
   1   1  33 189.537 20.6892   1
  10  20  24 53.5334 7.17062  -2
   1   3  33 53.5334 7.17062   1
   8  22  24 25.5386 8.55054  -2
   1   3  33 25.5386 8.55054   1
  14  20  22 15.4661 9.92074  -2
   1   3  33 15.4661 9.92074   1
  12  20  24 70.2236 10.9106  -2
   1   3  33 70.2236 10.9106   1
  15  21  21 3.00618 3.68449  -2
   3   3  33 3.00618 3.68449   1
   7  23  23 23.6114 4.66721  -2
   3   3  33 23.6114 4.66721   1
  11  19  25 26.9262 4.70550  -2
   3   3  33 26.9262 4.70550   1
  15  19  23 3.18960 4.41734  -2
   1   5  33 3.18960 4.41734   1
   8  20  26 0.24908 6.50301  -2
   1   5  33 0.24908 6.50301   1
  14  18  24 0.55790 10.3286  -2
   1   5  33 0.55790 10.3286   1
   7  21  25 -0.8261 4.02470  -2
   1   5  33 -0.8261 4.02470   1
   6  22  24 27.8960 8.55141  -2
   3   5  33 27.8960 8.55141   1
  12  18  26 14.8728 9.80101  -2
   3   5  33 14.8728 9.80101   1
  10  18  26 6.09803 9.80112  -2
   3   5  33 6.09803 9.80112   1
  16  20  22 18.6410 8.83086  -2
   3   5  33 18.6410 8.83086   1
   4  24  24 152.566 13.6969  -2
   5   5  33 152.566 13.6969   1
  11  17  27 76.1328 7.13021  -2
   5   5  33 76.1328 7.13021   1
  18  20  20 145.353 25.7639  -2
   5   5  33 145.353 25.7639   1
  16  18  24 -6.4090 9.79119  -2
   1   7  33 -6.4090 9.79119   1
   7  19  27 62.3705 5.05118  -2
   1   7  33 62.3705 5.05118   1
   6  20  26 3.72974 7.88771  -2
   1   7  33 3.72974 7.88771   1
  15  17  25 4.30777 4.97877  -2
   1   7  33 4.30777 4.97877   1
  14  16  26 29.6612 12.1889  -2
   3   7  33 29.6612 12.1889   1
   4  22  26 19.3772 6.55652  -2
   3   7  33 19.3772 6.55652   1
  18  18  22 66.1391 10.1628  -2
   3   7  33 66.1391 10.1628   1
   8  18  28 85.7607 10.6817  -2
   3   7  33 85.7607 10.6817   1
  19  19  21 147.700 7.15001  -2
   5   7  33 147.700 7.15001   1
   3  23  25 183.039 8.16879  -2
   5   7  33 183.039 8.16879   1
  12  16  28 101.440 11.6249  -2
   5   7  33 101.440 11.6249   1
  10  16  28 103.912 12.7368  -2
   5   7  33 103.912 12.7368   1
  11  15  29 120.927 8.18984  -2
   7   7  33 120.927 8.18984   1
  20  20  20 146.823 15.1665  -2
   7   7  33 146.823 15.1665   1
   2  24  24 301.887 16.6654  -2
   7   7  33 301.887 16.6654   1
  16  18  24 30.5031 11.2426  -2
   1   9  33 30.5031 11.2426   1
   6  18  28 141.080 8.83366  -2
   1   9  33 141.080 8.83366   1
  16  16  26 19.6668 10.7739  -2
   1   9  33 19.6668 10.7739   1
   4  20  28 70.4118 8.87964  -2
   1   9  33 70.4118 8.87964   1
  17  19  23 6.01281 4.21598  -2
   3   9  33 6.01281 4.21598   1
  15  15  27 0.61897 3.48170  -2
   3   9  33 0.61897 3.48170   1
   3  21  27 -3.3326 4.23830  -2
   3   9  33 -3.3326 4.23830   1
   7  17  29 119.310 8.51074  -2
   3   9  33 119.310 8.51074   1
   2  22  26 86.3121 9.67080  -2
   5   9  33 86.3121 9.67080   1
  18  20  22 35.6838 8.32710  -2
   5   9  33 35.6838 8.32710   1
  14  14  28 14.3125 10.8780  -2
   5   9  33 14.3125 10.8780   1
   8  16  30 101.315 12.2159  -2
   5   9  33 101.315 12.2159   1
  12  14  30 48.3938 10.8615  -2
   7   9  33 48.3938 10.8615   1
  10  14  30 73.2536 11.6386  -2
   7   9  33 73.2536 11.6386   1
   0  24  26 160.693 10.1420  -2
   7   9  33 160.693 10.1420   1
  18  20  22 55.9543 6.79199  -2
   7   9  33 55.9543 6.79199   1
  11  13  31 8.53926 5.59789  -2
   9   9  33 8.53926 5.59789   1
   1  25  25 144.319 11.1971  -2
   9   9  33 144.319 11.1971   1
  19  19  23 8.01988 5.84500  -2
   9   9  33 8.01988 5.84500   1
   4  18  30 199.125 10.5219  -2
   1  11  33 199.125 10.5219   1
   3  19  29 168.914 7.70968  -2
   1  11  33 168.914 7.70968   1
  15  19  25 63.3914 5.41325  -2
   1  11  33 63.3914 5.41325   1
  14  18  26 87.3055 12.9605  -2
   1  11  33 87.3055 12.9605   1
   2  20  28 13.4402 7.61595  -2
   3  11  33 13.4402 7.61595   1
   6  16  30 142.996 12.3301  -2
   3  11  33 142.996 12.3301   1
  16  20  24 9.01285 8.94048  -2
   3  11  33 9.01285 8.94048   1
  14  16  28 13.4238 10.4946  -2
   3  11  33 13.4238 10.4946   1
  16  22  22 1.41038 9.60353  -2
   5  11  33 1.41038 9.60353   1
   0  22  28 2.01735 6.96148  -2
   5  11  33 2.01735 6.96148   1
  13  15  29 11.2137 3.34953  -2
   5  11  33 11.2137 3.34953   1
   7  15  31 73.8426 7.58678  -2
   5  11  33 73.8426 7.58678   1
  12  14  30 -1.5602 10.9163  -2
   7  11  33 -1.5602 10.9163   1
   8  14  32 8.27283 12.1639  -2
   7  11  33 8.27283 12.1639   1
   1  23  27 46.5836 5.96075  -2
   7  11  33 46.5836 5.96075   1
  17  21  23 6.21255 3.18408  -2
   7  11  33 6.21255 3.18408   1
   2  24  26 61.5980 9.37404  -2
   9  11  33 61.5980 9.37404   1
  10  12  32 9.84149 10.4344  -2
   9  11  33 9.84149 10.4344   1
  18  20  24 -2.5054 6.21251  -2
   9  11  33 -2.5054 6.21251   1
  12  12  32 7.81567 10.9859  -2
   9  11  33 7.81567 10.9859   1
  11  11  33 36.7598 6.74803  -2
  11  11  33 36.7598 6.74803   1
  18  18  26 70.7049 16.2467  -2
  11  11  33 70.7049 16.2467   1
   4  26  26 52.9066 13.5425  -2
  11  11  33 52.9066 13.5425   1
   2  18  30 109.613 10.1798  -2
   1  13  33 109.613 10.1798   1
  14  20  26 56.3090 10.0463  -2
   1  13  33 56.3090 10.0463   1
   3  17  31 138.242 7.17204  -2
   1  13  33 138.242 7.17204   1
  13  19  27 63.7639 5.56866  -2
   1  13  33 63.7639 5.56866   1
  12  18  28 26.1212 12.0781  -2
   3  13  33 26.1212 12.0781   1
   0  20  30 33.0168 8.30474  -2
   3  13  33 33.0168 8.30474   1
  14  22  24 93.6872 12.5134  -2
   3  13  33 93.6872 12.5134   1
   4  16  32 21.7524 10.2820  -2
   3  13  33 21.7524 10.2820   1
   1  21  29 -0.7845 4.52077  -2
   5  13  33 -0.7845 4.52077   1
  12  16  30 17.0340 11.1493  -2
   5  13  33 17.0340 11.1493   1
  15  23  23 45.4626 5.10763  -2
   5  13  33 45.4626 5.10763   1
   6  14  32 25.0857 11.5344  -2
   5  13  33 25.0857 11.5344   1
   2  22  28 4.03311 7.21059  -2
   7  13  33 4.03311 7.21059   1
   7  13  33 6.83093 5.81114  -2
   7  13  33 6.83093 5.81114   1
  11  15  31 11.3731 3.22343  -2
   7  13  33 11.3731 3.22343   1
  16  22  24 15.3221 8.51540  -2
   7  13  33 15.3221 8.51540   1
   4  24  28 9.63468 8.95490  -2
   9  13  33 9.63468 8.95490   1
  10  14  32 -2.6003 11.6976  -2
   9  13  33 -2.6003 11.6976   1
  16  20  26 -2.7620 8.30045  -2
   9  13  33 -2.7620 8.30045   1
   8  12  34 32.6117 11.0769  -2
   9  13  33 32.6117 11.0769   1
   5  25  27 38.1286 6.08152  -2
  11  13  33 38.1286 6.08152   1
  10  12  34 60.4418 12.0008  -2
  11  13  33 60.4418 12.0008   1
  10  10  34 45.1959 11.7725  -2
  11  13  33 45.1959 11.7725   1
  17  19  27 75.8492 6.29090  -2
  11  13  33 75.8492 6.29090   1
   9  11  35 121.202 8.44717  -2
  13  13  33 121.202 8.44717   1
   6  26  26 86.5625 14.0960  -2
  13  13  33 86.5625 14.0960   1
  18  18  28 180.094 18.1199  -2
  13  13  33 180.094 18.1199   1
   2  16  32 23.5384 8.98486  -2
   1  15  33 23.5384 8.98486   1
  12  22  26 73.3303 11.2111  -2
   1  15  33 73.3303 11.2111   1
  12  20  28 27.3197 10.1884  -2
   1  15  33 27.3197 10.1884   1
   0  18  32 33.4298 8.50989  -2
   1  15  33 33.4298 8.50989   1
   3  15  33 -4.7264 5.61523  -2
   3  15  33 -4.7264 5.61523   1
  13  23  25 116.575 6.91813  -2
   3  15  33 116.575 6.91813   1
  11  19  29 12.4408 4.57378  -2
   3  15  33 12.4408 4.57378   1
   1  19  31 26.2173 5.59500  -2
   3  15  33 26.2173 5.59500   1
  14  24  24 117.424 11.4178  -2
   5  15  33 117.424 11.4178   1
  10  18  30 32.7773 9.26680  -2
   5  15  33 32.7773 9.26680   1
   2  20  30 36.7077 8.68050  -2
   5  15  33 36.7077 8.68050   1
   4  14  34 20.5951 12.1136  -2
   5  15  33 20.5951 12.1136   1
   6  12  34 12.8807 11.7736  -2
   7  15  33 12.8807 11.7736   1
  10  16  32 -5.5061 11.7949  -2
   7  15  33 -5.5061 11.7949   1
  14  22  26 10.7368 9.59773  -2
   7  15  33 10.7368 9.59773   1
   4  22  30 21.9783 8.51368  -2
   7  15  33 21.9783 8.51368   1
   7  11  35 7.01265 6.45256  -2
   9  15  33 7.01265 6.45256   1
  15  21  27 3.27613 4.31561  -2
   9  15  33 3.27613 4.31561   1
   9  15  33 1.01244 5.05168  -2
   9  15  33 1.01244 5.05168   1
   5  23  29 22.2848 4.41389  -2
   9  15  33 22.2848 4.41389   1
  16  20  28 47.2954 11.2692  -2
  11  15  33 47.2954 11.2692   1
   6  24  28 21.9273 9.50951  -2
  11  15  33 21.9273 9.50951   1
   8  14  34 12.5549 11.5831  -2
  11  15  33 12.5549 11.5831   1
   8  10  36 31.2352 11.6131  -2
  11  15  33 31.2352 11.6131   1
  16  18  30 87.0571 11.8576  -2
  13  15  33 87.0571 11.8576   1
   8  10  36 49.5645 12.0783  -2
  13  15  33 49.5645 12.0783   1
  11  23  27 35.8938 5.11571  -2
   1  17  33 35.8938 5.11571   1
   0  16  34 12.7442 8.73022  -2
   1  17  33 12.7442 8.73022   1
  10  22  28 28.4967 10.2326  -2
   1  17  33 28.4967 10.2326   1
   1  17  33 0.20965 4.78223  -2
   1  17  33 0.20965 4.78223   1
  10  20  30 28.0192 9.93114  -2
   3  17  33 28.0192 9.93114   1
  12  24  26 90.9892 11.3825  -2
   3  17  33 90.9892 11.3825   1
   2  14  34 66.6187 10.8701  -2
   3  17  33 66.6187 10.8701   1
   2  18  32 11.3758 9.11251  -2
   3  17  33 11.3758 9.11251   1
  12  24  26 108.405 12.0789  -2
   5  17  33 108.405 12.0789   1
   4  20  32 107.003 10.0891  -2
   5  17  33 107.003 10.0891   1
   3  13  35 115.040 9.20454  -2
   5  17  33 115.040 9.20454   1
   9  19  31 71.8575 6.07750  -2
   5  17  33 71.8575 6.07750   1
   5  21  31 102.754 6.95739  -2
   7  17  33 102.754 6.95739   1
  13  23  27 66.4865 6.65993  -2
   7  17  33 66.4865 6.65993   1
   8  18  32 74.3902 10.1570  -2
   7  17  33 74.3902 10.1570   1
   4  12  36 109.308 13.2797  -2
   7  17  33 109.308 13.2797   1
  14  22  28 0.52942 9.71901  -2
   9  17  33 0.52942 9.71901   1
   8  16  34 -31.545 11.1670  -2
   9  17  33 -31.545 11.1670   1
   6  22  30 42.2222 8.79779  -2
   9  17  33 42.2222 8.79779   1
   6  10  36 43.5979 11.9843  -2
   9  17  33 43.5979 11.9843   1
   9  23  29 16.5802 4.21869  -2
   1  19  33 16.5802 4.21869   1
  10  24  28 20.4758 10.6558  -2
   1  19  33 20.4758 10.6558   1
   2  16  34 30.6747 9.46326  -2
   1  19  33 30.6747 9.46326   1
   1  15  35 55.9311 6.28199  -2
   1  19  33 55.9311 6.28199   1
   8  22  30 57.0182 10.4019  -2
   3  19  33 57.0182 10.4019   1
  10  26  26 47.4118 12.4004  -2
   3  19  33 47.4118 12.4004   1
   5  19  33 115.522 7.89434  -2
   5  19  33 115.522 7.89434   1
   8  20  32 118.452 15.3822  -2
   5  19  33 118.452 15.3822   1
   2  12  36 195.302 14.0434  -2
   5  19  33 195.302 14.0434   1
  11  25  27 108.835 6.87376  -2
   5  19  33 108.835 6.87376   1
  11  23  23 386.954 26.9125  -2
   0   0  34 386.954 26.9125   1
  10  22  24 205.743 8.53552  -2
   0   2  34 205.743 8.53552   1
  13  21  23 209.187 14.0757  -2
   0   2  34 209.187 14.0757   1
  11  21  25 144.609 12.5062  -2
   2   2  34 144.609 12.5062   1
   9  23  23 132.486 14.3873  -2
   2   2  34 132.486 14.3873   1
  14  22  22 125.067 9.00611  -2
   2   2  34 125.067 9.00611   1
   9  21  25 56.9741 7.91554  -2
   0   4  34 56.9741 7.91554   1
  14  20  24 96.8910 7.18997  -2
   0   4  34 96.8910 7.18997   1
  13  19  25 39.7904 10.6483  -2
   2   4  34 39.7904 10.6483   1
  15  21  23 48.1264 9.84901  -2
   2   4  34 48.1264 9.84901   1
  10  20  26 29.7283 5.89946  -2
   2   4  34 29.7283 5.89946   1
   7  23  25 44.0609 9.12740  -2
   2   4  34 44.0609 9.12740   1
   6  24  24 18.1424 7.37452  -2
   4   4  34 18.1424 7.37452   1
  11  19  27 -11.972 9.97021  -2
   4   4  34 -11.972 9.97021   1
  17  21  21 -1.5138 28.7939  -2
   4   4  34 -1.5138 28.7939   1
  15  19  25 16.4454 10.9185  -2
   0   6  34 16.4454 10.9185   1
   7  21  27 18.9217 7.61979  -2
   0   6  34 18.9217 7.61979   1
   6  22  26 -2.3089 3.63808  -2
   2   6  34 -2.3089 3.63808   1
  17  19  23 37.5631 9.85077  -2
   2   6  34 37.5631 9.85077   1
  14  18  26 2.62885 5.16292  -2
   2   6  34 2.62885 5.16292   1
   9  19  27 14.2331 10.4450  -2
   2   6  34 14.2331 10.4450   1
  10  18  28 20.4557 5.62384  -2
   4   6  34 20.4557 5.62384   1
   5  23  25 40.4521 8.98687  -2
   4   6  34 40.4521 8.98687   1
  13  17  27 -1.5169 10.9293  -2
   4   6  34 -1.5169 10.9293   1
  18  20  22 16.3626 3.85722  -2
   4   6  34 16.3626 3.85722   1
   3  25  25 107.943 13.0350  -2
   6   6  34 107.943 13.0350   1
  19  21  21 45.4211 18.8938  -2
   6   6  34 45.4211 18.8938   1
  11  17  29 71.0091 11.5344  -2
   6   6  34 71.0091 11.5344   1
  17  17  25 43.3927 11.2085  -2
   0   8  34 43.3927 11.2085   1
   6  20  28 98.3431 6.80024  -2
   0   8  34 98.3431 6.80024   1
   5  21  27 18.8210 8.64091  -2
   2   8  34 18.8210 8.64091   1
  15  17  27 21.8073 11.1939  -2
   2   8  34 21.8073 11.1939   1
  18  18  24 19.9533 4.81367  -2
   2   8  34 19.9533 4.81367   1
   7  19  29 109.113 11.4612  -2
   2   8  34 109.113 11.4612   1
   3  23  27 9.04193 9.04131  -2
   4   8  34 9.04193 9.04131   1
  19  19  23 -5.1323 8.64056  -2
   4   8  34 -5.1323 8.64056   1
  14  16  28 -4.0440 4.61937  -2
   4   8  34 -4.0440 4.61937   1
   9  17  29 58.1257 11.3312  -2
   4   8  34 58.1257 11.3312   1
   2  24  26 88.4590 6.57421  -2
   6   8  34 88.4590 6.57421   1
  19  21  21 23.8493 10.8805  -2
   6   8  34 23.8493 10.8805   1
  10  16  30 34.1371 6.68346  -2
   6   8  34 34.1371 6.68346   1
  13  15  29 27.9104 12.0711  -2
   6   8  34 27.9104 12.0711   1
  20  20  22 3.33032 6.30627  -2
   8   8  34 3.33032 6.30627   1
  11  15  31 -2.6508 10.8364  -2
   8   8  34 -2.6508 10.8364   1
   1  25  25 133.454 14.2031  -2
   8   8  34 133.454 14.2031   1
   5  19  29 259.599 11.5427  -2
   0  10  34 259.599 11.5427   1
  16  18  26 128.658 7.71589  -2
   0  10  34 128.658 7.71589   1
  17  19  25 77.1890 11.6919  -2
   2  10  34 77.1890 11.6919   1
   3  21  29 94.1251 8.36501  -2
   2  10  34 94.1251 8.36501   1
   6  18  30 212.194 10.8213  -2
   2  10  34 212.194 10.8213   1
  15  17  27 82.4369 14.3179  -2
   2  10  34 82.4369 14.3179   1
   2  22  28 22.4124 4.89441  -2
   4  10  34 22.4124 4.89441   1
   7  17  31 96.4184 12.5569  -2
   4  10  34 96.4184 12.5569   1
  17  21  23 12.8198 8.96819  -2
   4  10  34 12.8198 8.96819   1
  15  15  29 25.5289 11.1217  -2
   4  10  34 25.5289 11.1217   1
  18  22  22 9.85063 3.68230  -2
   6  10  34 9.85063 3.68230   1
  14  14  30 3.74966 5.44749  -2
   6  10  34 3.74966 5.44749   1
   9  15  31 -0.1794 11.4468  -2
   6  10  34 -0.1794 11.4468   1
   1  23  27 46.0077 9.84519  -2
   6  10  34 46.0077 9.84519   1
   1  25  27 42.7293 9.16424  -2
   8  10  34 42.7293 9.16424   1
  10  14  32 4.76447 5.46274  -2
   8  10  34 4.76447 5.46274   1
  13  13  31 3.89064 11.4063  -2
   8  10  34 3.89064 11.4063   1
  19  21  23 40.8293 9.69264  -2
   8  10  34 40.8293 9.69264   1
   2  26  26 85.4896 9.60121  -2
  10  10  34 85.4896 9.60121   1
  19  19  25 28.0828 14.3103  -2
  10  10  34 28.0828 14.3103   1
  11  13  33 36.6559 11.3129  -2
  10  10  34 36.6559 11.3129   1
  15  19  27 221.867 15.2186  -2
   0  12  34 221.867 15.2186   1
   3  19  31 276.584 11.5866  -2
   0  12  34 276.584 11.5866   1
   2  20  30 162.663 7.94375  -2
   2  12  34 162.663 7.94375   1
  14  18  28 148.605 7.12886  -2
   2  12  34 148.605 7.12886   1
   5  17  31 242.973 14.0192  -2
   2  12  34 242.973 14.0192   1
  15  21  25 154.923 11.5833  -2
   2  12  34 154.923 11.5833   1
   1  21  29 45.3786 8.38288  -2
   4  12  34 45.3786 8.38288   1
  16  22  24 62.0627 5.11560  -2
   4  12  34 62.0627 5.11560   1
  13  17  29 29.5993 12.3965  -2
   4  12  34 29.5993 12.3965   1
   6  16  32 92.9994 8.48700  -2
   4  12  34 92.9994 8.48700   1
  17  23  23 7.69942 9.15609  -2
   6  12  34 7.69942 9.15609   1
   1  23  29 7.46043 7.23962  -2
   6  12  34 7.46043 7.23962   1
   7  15  33 16.4971 11.7881  -2
   6  12  34 16.4971 11.7881   1
  13  15  31 6.86878 11.4560  -2
   6  12  34 6.86878 11.4560   1
  17  21  25 8.16071 8.51416  -2
   8  12  34 8.16071 8.51416   1
  12  14  32 18.2052 5.31923  -2
   8  12  34 18.2052 5.31923   1
   9  13  33 26.6526 11.4971  -2
   8  12  34 26.6526 11.4971   1
   2  24  28 36.0101 6.26230  -2
   8  12  34 36.0101 6.26230   1
  10  12  34 112.306 8.80069  -2
  10  12  34 112.306 8.80069   1
   3  25  27 119.218 10.1492  -2
  10  12  34 119.218 10.1492   1
  18  20  26 97.6595 7.74696  -2
  10  12  34 97.6595 7.74696   1
  11  13  33 115.227 13.5374  -2
  10  12  34 115.227 13.5374   1
   5  27  27 167.094 16.2722  -2
  12  12  34 167.094 16.2722   1
  11  11  35 225.427 14.6028  -2
  12  12  34 225.427 14.6028   1
  19  19  27 167.747 17.8363  -2
  12  12  34 167.747 17.8363   1
  13  21  27 160.424 13.7004  -2
   0  14  34 160.424 13.7004   1
   2  18  32 180.887 8.17615  -2
   0  14  34 180.887 8.17615   1
   3  17  33 109.446 10.7869  -2
   2  14  34 109.446 10.7869   1
   1  19  31 127.965 9.67198  -2
   2  14  34 127.965 9.67198   1
  14  22  26 124.795 7.50095  -2
   2  14  34 124.795 7.50095   1
  13  19  29 111.652 11.3293  -2
   2  14  34 111.652 11.3293   1
  15  23  25 67.7303 11.2333  -2
   4  14  34 67.7303 11.2333   1
   1  21  31 53.9555 8.84782  -2
   4  14  34 53.9555 8.84782   1
   5  15  33 43.6458 12.6675  -2
   4  14  34 43.6458 12.6675   1
  12  18  30 52.6227 5.26628  -2
   4  14  34 52.6227 5.26628   1
   6  14  34 5.74146 5.80356  -2
   6  14  34 5.74146 5.80356   1
  15  23  25 65.8249 10.9757  -2
   6  14  34 65.8249 10.9757   1
   2  22  30 5.25237 4.74107  -2
   6  14  34 5.25237 4.74107   1
  11  17  31 -1.5320 13.2644  -2
   6  14  34 -1.5320 13.2644   1
   7  13  35 25.5958 12.5281  -2
   8  14  34 25.5958 12.5281   1
  11  15  33 19.7595 12.3744  -2
   8  14  34 19.7595 12.3744   1
   3  23  29 9.21171 10.0836  -2
   8  14  34 9.21171 10.0836   1
  16  22  26 21.3093 4.52268  -2
   8  14  34 21.3093 4.52268   1
  10  14  34 97.9368 7.93979  -2
  10  14  34 97.9368 7.93979   1
  17  21  27 51.3266 11.1236  -2
  10  14  34 51.3266 11.1236   1
   9  11  35 106.082 12.9430  -2
  10  14  34 106.082 12.9430   1
  12  22  28 53.1674 5.75943  -2
   0  16  34 53.1674 5.75943   1
   1  17  33 35.9820 8.72474  -2
   0  16  34 35.9820 8.72474   1
  11  21  29 3.30609 9.91185  -2
   2  16  34 3.30609 9.91185   1
   1  19  33 21.2770 9.13144  -2
   2  16  34 21.2770 9.13144   1
   2  16  34 13.3815 5.87848  -2
   2  16  34 13.3815 5.87848   1
  13  23  27 35.3763 10.9898  -2
   2  16  34 35.3763 10.9898   1
  11  19  31 -6.1418 12.4632  -2
   4  16  34 -6.1418 12.4632   1
  13  25  25 76.1609 11.3779  -2
   4  16  34 76.1609 11.3779   1
   2  20  32 17.5703 5.29348  -2
   4  16  34 17.5703 5.29348   1
   3  15  35 23.7506 12.7352  -2
   4  16  34 23.7506 12.7352   1
  10  18  32 15.3700 4.66620  -2
   6  16  34 15.3700 4.66620   1
   3  21  31 29.0469 9.09495  -2
   6  16  34 29.0469 9.09495   1
   5  13  35 37.1358 12.6788  -2
   6  16  34 37.1358 12.6788   1
  14  24  26 40.9445 5.99149  -2
   6  16  34 40.9445 5.99149   1
   6  12  36 43.6854 8.09155  -2
   8  16  34 43.6854 8.09155   1
   9  17  33 -8.2667 13.3806  -2
   8  16  34 -8.2667 13.3806   1
  15  23  27 -1.6253 10.3098  -2
   8  16  34 -1.6253 10.3098   1
   0  18  34 -5.4595 2.75525   1
  11  25  27 10.5581 10.5514  -2
   2  18  34 10.5581 10.5514   1
   2  18  34 9.99592 5.91430  -2
   2  18  34 9.99592 5.91430   1
  10  22  30 2.22599 4.39762  -2
   2  18  34 2.22599 4.39762   1
   1  15  35 21.8689 10.5959  -2
   2  18  34 21.8689 10.5959   1
  10  24  24 374.459 27.6864  -2
   1   1  35 374.459 27.6864   1
  12  22  24 380.646 17.0639  -2
   1   1  35 380.646 17.0639   1
  13  23  23 354.841 17.0120  -2
   1   1  35 354.841 17.0120   1
  13  21  25 180.117 11.0603  -2
   1   3  35 180.117 11.0603   1
   9  23  25 153.340 7.92606  -2
   1   3  35 153.340 7.92606   1
  14  22  24 223.549 13.7780  -2
   1   3  35 223.549 13.7780   1
  10  22  26 178.390 12.7215  -2
   1   3  35 178.390 12.7215   1
   8  24  24 83.9542 14.1753  -2
   3   3  35 83.9542 14.1753   1
  12  20  26 61.9072 11.9106  -2
   3   3  35 61.9072 11.9106   1
  16  22  22 68.7678 23.8377  -2
   3   3  35 68.7678 23.8377   1
   8  22  26 36.5770 8.21496  -2
   1   5  35 36.5770 8.21496   1
   9  21  27 45.9423 6.97309  -2
   1   5  35 45.9423 6.97309   1
  14  20  26 64.0271 12.2083  -2
   1   5  35 64.0271 12.2083   1
  16  20  24 132.509 17.8049  -2
   1   5  35 132.509 17.8049   1
   6  24  26 22.2586 8.69055  -2
   3   5  35 22.2586 8.69055   1
  13  19  27 10.4999 5.46775  -2
   3   5  35 10.4999 5.46775   1
  10  20  28 6.85378 12.4526  -2
   3   5  35 6.85378 12.4526   1
  17  21  23 2.96029 5.13605  -2
   3   5  35 2.96029 5.13605   1
  12  18  28 15.5402 13.6003  -2
   5   5  35 15.5402 13.6003   1
   5  25  25 28.5590 7.26525  -2
   5   5  35 28.5590 7.26525   1
  18  22  22 -9.3135 18.4526  -2
   5   5  35 -9.3135 18.4526   1
   8  20  28 84.5908 11.0663  -2
   1   7  35 84.5908 11.0663   1
  17  19  25 51.5094 6.95439  -2
   1   7  35 51.5094 6.95439   1
  16  18  26 57.2844 12.4929  -2
   1   7  35 57.2844 12.4929   1
   6  22  28 56.6177 7.42476  -2
   1   7  35 56.6177 7.42476   1
   5  23  27 18.6052 4.12560  -2
   3   7  35 18.6052 4.12560   1
   9  19  29 40.4136 6.38807  -2
   3   7  35 40.4136 6.38807   1
  18  20  24 -0.6635 8.88623  -2
   3   7  35 -0.6635 8.88623   1
  14  18  28 29.2241 11.6618  -2
   3   7  35 29.2241 11.6618   1
  20  20  22 -7.1943 14.6058  -2
   5   7  35 -7.1943 14.6058   1
  10  18  30 7.29507 11.7889  -2
   5   7  35 7.29507 11.7889   1
   4  24  26 36.3163 9.35613  -2
   5   7  35 36.3163 9.35613   1
  13  17  29 26.9884 6.09862  -2
   5   7  35 26.9884 6.09862   1
  21  21  21 16.2265 6.81635  -2
   7   7  35 16.2265 6.81635   1
  12  16  30 2.51963 12.2582  -2
   7   7  35 2.51963 12.2582   1
   2  26  26 54.8359 13.0252  -2
   7   7  35 54.8359 13.0252   1
   5  21  29 169.366 7.70428  -2
   1   9  35 169.366 7.70428   1
   6  20  30 204.355 13.2662  -2
   1   9  35 204.355 13.2662   1
  17  17  27 160.594 9.39269  -2
   1   9  35 160.594 9.39269   1
  18  18  26 143.992 13.6014  -2
   1   9  35 143.992 13.6014   1
   4  22  28 41.5331 7.32709  -2
   3   9  35 41.5331 7.32709   1
   8  18  30 149.257 13.0221  -2
   3   9  35 149.257 13.0221   1
  16  16  28 36.0826 12.7304  -2
   3   9  35 36.0826 12.7304   1
  18  20  24 65.9929 10.7304  -2
   3   9  35 65.9929 10.7304   1
   2  24  28 19.8374 10.6574  -2
   5   9  35 19.8374 10.6574   1
  19  21  23 5.52791 3.92532  -2
   5   9  35 5.52791 3.92532   1
   9  17  31 37.0495 7.07232  -2
   5   9  35 37.0495 7.07232   1
  14  16  30 32.1739 13.6824  -2
   5   9  35 32.1739 13.6824   1
  13  15  31 5.44001 5.65024  -2
   7   9  35 5.44001 5.65024   1
   1  25  27 51.4510 6.11492  -2
   7   9  35 51.4510 6.11492   1
  20  22  22 9.40055 10.8911  -2
   7   9  35 9.40055 10.8911   1
  10  16  32 23.0232 11.5453  -2
   7   9  35 23.0232 11.5453   1
  20  20  24 41.3540 14.5639  -2
   9   9  35 41.3540 14.5639   1
  12  14  32 41.8405 13.2744  -2
   9   9  35 41.8405 13.2744   1
   0  26  26 87.6467 13.6991  -2
   9   9  35 87.6467 13.6991   1
  16  20  26 223.599 15.2084  -2
   1  11  35 223.599 15.2084   1
   4  20  30 307.781 11.9229  -2
   1  11  35 307.781 11.9229   1
   5  19  31 332.998 13.4570  -2
   1  11  35 332.998 13.4570   1
  16  18  28 291.199 16.8118  -2
   1  11  35 291.199 16.8118   1
  15  17  29 156.341 8.16130  -2
   3  11  35 156.341 8.16130   1
  17  21  25 138.575 8.41920  -2
   3  11  35 138.575 8.41920   1
   2  22  30 141.044 9.41571  -2
   3  11  35 141.044 9.41571   1
   6  18  32 185.456 13.1474  -2
   3  11  35 185.456 13.1474   1
   1  23  29 45.5197 5.75116  -2
   5  11  35 45.5197 5.75116   1
  18  22  24 50.6645 9.45173  -2
   5  11  35 50.6645 9.45173   1
  14  16  30 49.7776 13.1530  -2
   5  11  35 49.7776 13.1530   1
   8  16  32 61.7187 12.3918  -2
   5  11  35 61.7187 12.3918   1
  14  14  32 35.5309 11.2165  -2
   7  11  35 35.5309 11.2165   1
   0  24  28 61.8638 10.3935  -2
   7  11  35 61.8638 10.3935   1
   9  15  33 45.5215 7.45918  -2
   7  11  35 45.5215 7.45918   1
  18  22  24 45.5422 8.46368  -2
   7  11  35 45.5422 8.46368   1
  19  21  25 82.8845 7.26237  -2
   9  11  35 82.8845 7.26237   1
  13  13  33 130.056 9.38688  -2
   9  11  35 130.056 9.38688   1
   2  26  28 107.600 10.3383  -2
   9  11  35 107.600 10.3383   1
  10  14  34 128.653 13.1067  -2
   9  11  35 128.653 13.1067   1
   3  27  27 175.280 12.2260  -2
  11  11  35 175.280 12.2260   1
  20  20  26 187.895 18.8273  -2
  11  11  35 187.895 18.8273   1
  12  12  34 279.600 15.2301  -2
  11  11  35 279.600 15.2301   1
   2  20  32 257.687 11.5837  -2
   1  13  35 257.687 11.5837   1
  14  20  28 251.787 14.0943  -2
   1  13  35 251.787 14.0943   1
  15  21  27 228.369 9.41020  -2
   1  13  35 228.369 9.41020   1
   4  18  32 282.874 13.6788  -2
   1  13  35 282.874 13.6788   1
   5  17  33 173.974 10.5517  -2
   3  13  35 173.974 10.5517   1
  14  18  30 176.607 16.0799  -2
   3  13  35 176.607 16.0799   1
  16  22  26 154.983 12.1730  -2
   3  13  35 154.983 12.1730   1
   1  21  31 174.825 8.39068  -2
   3  13  35 174.825 8.39068   1
  13  17  31 74.0754 5.46807  -2
   5  13  35 74.0754 5.46807   1
   0  22  30 72.1091 8.69781  -2
   5  13  35 72.1091 8.69781   1
   6  16  34 44.5353 12.7958  -2
   5  13  35 44.5353 12.7958   1
  16  24  24 96.2387 10.7469  -2
   5  13  35 96.2387 10.7469   1
  17  23  25 43.0297 6.19074  -2
   7  13  35 43.0297 6.19074   1
  12  16  32 38.7985 13.8692  -2
   7  13  35 38.7985 13.8692   1
   8  14  34 62.2557 14.1270  -2
   7  13  35 62.2557 14.1270   1
   2  24  30 48.9307 10.6927  -2
   7  13  35 48.9307 10.6927   1
  18  22  26 117.308 14.6385  -2
   9  13  35 117.308 14.6385   1
   9  13  35 128.170 9.61828  -2
   9  13  35 128.170 9.61828   1
   3  25  29 102.873 7.50741  -2
   9  13  35 102.873 7.50741   1
   2  18  34 76.6623 10.8840  -2
   1  15  35 76.6623 10.8840   1
  13  21  29 75.6643 6.35075  -2
   1  15  35 75.6643 6.35075   1
   1  19  33 110.222 7.13276  -2
   1  15  35 110.222 7.13276   1
  14  22  28 75.9749 11.3451  -2
   1  15  35 75.9749 11.3451   1
  14  24  26 68.5530 11.7485  -2
   3  15  35 68.5530 11.7485   1
   0  20  32 40.6688 9.20381  -2
   3  15  35 40.6688 9.20381   1
   4  16  34 18.2393 11.8929  -2
   3  15  35 18.2393 11.8929   1
  12  20  30 56.5783 11.5185  -2
   3  15  35 56.5783 11.5185   1
  15  25  25 42.2864 5.26220  -2
   5  15  35 42.2864 5.26220   1
   5  15  35 12.2293 6.58994  -2
   5  15  35 12.2293 6.58994   1
  12  24  24 427.543 18.9778  -2
   0   0  36 427.543 18.9778   1
  11  23  25 312.688 15.5961  -2
   0   2  36 312.688 15.5961   1
  13  23  25 330.839 22.7588  -2
   0   2  36 330.839 22.7588   1
  12  22  26 193.777 9.95372  -2
   2   2  36 193.777 9.95372   1
   9  25  25 197.256 16.1249  -2
   2   2  36 197.256 16.1249   1
  15  23  23 175.845 38.1366  -2
   2   2  36 175.845 38.1366   1
  15  21  25 90.8121 11.9182  -2
   0   4  36 90.8121 11.9182   1
   9  23  27 99.9217 11.9854  -2
   0   4  36 99.9217 11.9854   1
   8  24  26 66.3355 5.18356  -2
   2   4  36 66.3355 5.18356   1
  16  22  24 86.2959 7.49523  -2
   2   4  36 86.2959 7.49523   1
  13  21  27 73.2228 11.8588  -2
   2   4  36 73.2228 11.8588   1
  11  21  27 54.9908 12.5610  -2
   2   4  36 54.9908 12.5610   1
  12  20  28 5.10228 5.58249  -2
   4   4  36 5.10228 5.58249   1
   7  25  25 18.8256 13.8754  -2
   4   4  36 18.8256 13.8754   1
  17  23  23 3.94252 22.8633  -2
   4   4  36 3.94252 22.8633   1
  16  20  26 65.4380 6.96312  -2
   0   6  36 65.4380 6.96312   1
   8  22  28 65.8333 7.52569  -2
   0   6  36 65.8333 7.52569   1
   7  23  27 61.5139 8.97419  -2
   2   6  36 61.5139 8.97419   1
  15  19  27 60.9975 11.7655  -2
   2   6  36 60.9975 11.7655   1
  17  21  25 44.2280 9.93365  -2
   2   6  36 44.2280 9.93365   1
   9  21  29 72.3636 11.9241  -2
   2   6  36 72.3636 11.9241   1
   5  25  27 18.2569 9.17062  -2
   4   6  36 18.2569 9.17062   1
  11  19  29 -0.5054 10.7544  -2
   4   6  36 -0.5054 10.7544   1
  19  21  23 -4.5484 14.8013  -2
   4   6  36 -4.5484 14.8013   1
  13  19  29 23.4343 11.0478  -2
   4   6  36 23.4343 11.0478   1
   4  26  26 9.65791 6.70799  -2
   6   6  36 9.65791 6.70799   1
  12  18  30 20.4462 5.81426  -2
   6   6  36 20.4462 5.81426   1
  20  22  22 -2.0449 9.54552  -2
   6   6  36 -2.0449 9.54552   1
  17  19  27 164.824 13.5541  -2
   0   8  36 164.824 13.5541   1
   7  21  29 129.659 12.1824  -2
   0   8  36 129.659 12.1824   1
   5  23  29 66.1786 7.78792  -2
   2   8  36 66.1786 7.78792   1
   8  20  30 110.701 8.43350  -2
   2   8  36 110.701 8.43350   1
  16  18  28 118.918 8.63195  -2
   2   8  36 118.918 8.63195   1
  19  19  25 80.3188 11.9887  -2
   2   8  36 80.3188 11.9887   1
  15  17  29 64.0110 13.2498  -2
   4   8  36 64.0110 13.2498   1
   9  19  31 38.8908 11.6868  -2
   4   8  36 38.8908 11.6868   1
  20  20  24 4.76342 5.78443  -2
   4   8  36 4.76342 5.78443   1
   4  24  28 22.3962 6.19996  -2
   4   8  36 22.3962 6.19996   1
  11  17  31 34.7393 12.2589  -2
   6   8  36 34.7393 12.2589   1
  13  17  31 1.12978 10.5188  -2
   6   8  36 1.12978 10.5188   1
   3  25  27 6.79971 9.82169  -2
   6   8  36 6.79971 9.82169   1
  21  21  23 39.4511 14.4043  -2
   6   8  36 39.4511 14.4043   1
   1  27  27 22.1117 13.0611  -2
   8   8  36 22.1117 13.0611   1
  21  21  23 2.13952 19.7814  -2
   8   8  36 2.13952 19.7814   1
  12  16  32 1.90481 6.18093  -2
   8   8  36 1.90481 6.18093   1
   5  21  31 273.297 12.9240  -2
   0  10  36 273.297 12.9240   1
  17  19  27 268.698 16.4312  -2
   0  10  36 268.698 16.4312   1
   4  22  30 180.347 8.30962  -2
   2  10  36 180.347 8.30962   1
  18  20  26 172.594 9.04158  -2
   2  10  36 172.594 9.04158   1
   7  19  31 245.028 14.5694  -2
   2  10  36 245.028 14.5694   1
  17  17  29 239.489 16.2501  -2
   2  10  36 239.489 16.2501   1
   3  23  29 87.9825 10.6368  -2
   4  10  36 87.9825 10.6368   1
  19  21  25 96.3960 9.66446  -2
   4  10  36 96.3960 9.66446   1
   8  18  32 119.250 9.14847  -2
   4  10  36 119.250 9.14847   1
  16  16  30 106.728 8.77820  -2
   4  10  36 106.728 8.77820   1
  19  23  23 60.8737 12.6511  -2
   6  10  36 60.8737 12.6511   1
   9  17  33 35.5916 12.2060  -2
   6  10  36 35.5916 12.2060   1
  15  15  31 44.1014 13.6770  -2
   6  10  36 44.1014 13.6770   1
   1  25  29 45.5332 10.2638  -2
   6  10  36 45.5332 10.2638   1
   0  26  28 74.0742 7.09478  -2
   8  10  36 74.0742 7.09478   1
  13  15  33 98.8761 13.0442  -2
   8  10  36 98.8761 13.0442   1
  20  22  24 79.3504 7.48344  -2
   8  10  36 79.3504 7.48344   1
  11  15  33 75.6366 13.6235  -2
   8  10  36 75.6366 13.6235   1
  16  20  28 287.903 11.4823  -2
   0  12  36 287.903 11.4823   1
   4  20  32 331.996 12.3841  -2
   0  12  36 331.996 12.3841   1
  15  19  29 254.761 17.5866  -2
   2  12  36 254.761 17.5866   1
  17  21  27 225.654 13.3217  -2
   2  12  36 225.654 13.3217   1
   5  19  33 278.844 13.6688  -2
   2  12  36 278.844 13.6688   1
   3  21  31 250.444 11.2917  -2
   2  12  36 250.444 11.2917   1
   7  17  33 133.307 13.8568  -2
   4  12  36 133.307 13.8568   1
  17  23  25 132.946 11.5402  -2
   4  12  36 132.946 11.5402   1
  15  17  31 125.440 14.1191  -2
   4  12  36 125.440 14.1191   1
   0  24  30 87.4018 7.91061  -2
   6  12  36 87.4018 7.91061   1
   8  16  34 51.1934 7.89853  -2
   6  12  36 51.1934 7.89853   1
  18  24  24 76.6073 6.58064  -2
   6  12  36 76.6073 6.58064   1
  14  16  32 62.0564 7.92345  -2
   6  12  36 62.0564 7.92345   1
  12  24  26 243.303 22.0284  -2
   1   1  37 243.303 22.0284   1
  11  25  25 253.800 14.2985  -2
   1   1  37 253.800 14.2985   1
  14  24  24 214.688 30.3577  -2
   1   1  37 214.688 30.3577   1
  11  23  27 123.804 8.62744  -2
   1   3  37 123.804 8.62744   1
  10  24  26 137.864 12.8149  -2
   1   3  37 137.864 12.8149   1
  15  23  25 143.508 11.6458  -2
   1   3  37 143.508 11.6458   1
  14  22  26 125.636 13.9844  -2
   1   3  37 125.636 13.9844   1
  12  22  28 28.2550 11.9783  -2
   3   3  37 28.2550 11.9783   1
   8  26  26 45.8477 13.7581  -2
   3   3  37 45.8477 13.7581   1
  16  24  24 118.743 27.7512  -2
   3   3  37 118.743 27.7512   1
  10  22  28 59.4206 12.4984  -2
   1   5  37 59.4206 12.4984   1
  16  22  26 42.9739 10.4799  -2
   1   5  37 42.9739 10.4799   1
  15  21  27 58.1843 6.86539  -2
   1   5  37 58.1843 6.86539   1
   8  24  28 47.2796 11.9536  -2
   1   5  37 47.2796 11.9536   1
  11  21  29 -0.3796 6.20819  -2
   3   5  37 -0.3796 6.20819   1
  18  22  24 22.9948 16.3297  -2
   3   5  37 22.9948 16.3297   1
  14  20  28 -3.1787 13.8854  -2
   3   5  37 -3.1787 13.8854   1
   7  25  27 20.3972 5.47219  -2
   3   5  37 20.3972 5.47219   1
  19  23  23 18.9090 10.3350  -2
   5   5  37 18.9090 10.3350   1
  12  20  30 7.03211 11.3902  -2
   5   5  37 7.03211 11.3902   1
   6  26  26 25.0499 14.0188  -2
   5   5  37 25.0499 14.0188   1
   8  22  30 85.1663 12.1884  -2
   1   7  37 85.1663 12.1884   1
  16  20  28 62.3208 12.5008  -2
   1   7  37 62.3208 12.5008   1
  18  20  26 55.5947 11.7135  -2
   1   7  37 55.5947 11.7135   1
   7  23  29 55.3469 6.52588  -2
   1   7  37 55.3469 6.52588   1
  15  19  29 39.1759 6.89340  -2
   3   7  37 39.1759 6.89340   1
  19  21  25 9.34896 8.65255  -2
   3   7  37 9.34896 8.65255   1
  10  20  30 30.2413 11.6604  -2
   3   7  37 30.2413 11.6604   1
   6  24  28 18.2849 9.64998  -2
   3   7  37 18.2849 9.64998   1
  11  19  31 4.31250 5.82483  -2
   5   7  37 4.31250 5.82483   1
  20  22  24 21.9277 14.2160  -2
   5   7  37 21.9277 14.2160   1
  14  18  30 14.6445 12.8437  -2
   5   7  37 14.6445 12.8437   1
   4  26  28 11.9338 10.9345  -2
   5   7  37 11.9338 10.9345   1
  22  22  22 95.4988 22.1136  -2
   7   7  37 95.4988 22.1136   1
   3  27  27 4.30859 6.82610  -2
   7   7  37 4.30859 6.82610   1
   7  21  31 147.992 9.96086  -2
   1   9  37 147.992 9.96086   1
   6  22  30 141.162 10.3510  -2
   1   9  37 141.162 10.3510   1
  19  19  27 154.107 10.3149  -2
   1   9  37 154.107 10.3149   1
  18  18  28 197.626 16.4107  -2
   1   9  37 197.626 16.4107   1
  20  20  26 56.9593 15.0566  -2
   3   9  37 56.9593 15.0566   1
  16  18  30 79.4709 13.6255  -2
   3   9  37 79.4709 13.6255   1
   8  20  32 83.5287 17.4776  -2
   3   9  37 83.5287 17.4776   1
   3  25  29 19.5577 6.26845  -2
   5   9  37 19.5577 6.26845   1
  10  18  32 13.7627 12.2286  -2
   5   9  37 13.7627 12.2286   1
  15  17  31 41.2549 7.31016  -2
   5   9  37 41.2549 7.31016   1
  20  22  24 43.8616 16.1558  -2
   5   9  37 43.8616 16.1558   1
  13  25  25 255.806 31.8592  -2
   0   0  38 255.806 31.8592   1
  11  25  27 89.9990 12.8257  -2
   0   2  38 89.9990 12.8257   1
  14  24  26 132.326 11.7589  -2
   0   2  38 132.326 11.7589   1
  10  26  26 74.2651 9.88050  -2
   2   2  38 74.2651 9.88050   1
  15  25  25 127.781 28.0641  -2
   2   2  38 127.781 28.0641   1
  13  23  27 53.0219 13.4467  -2
   2   2  38 53.0219 13.4467   1
  15  23  27 35.9169 17.8515  -2
   0   4  38 35.9169 17.8515   1
  10  24  28 21.1317 6.47304  -2
   0   4  38 21.1317 6.47304   1
  14  22  28 13.1620 6.54128  -2
   2   4  38 13.1620 6.54128   1
  17  23  25 45.7697 18.1389  -2
   2   4  38 45.7697 18.1389   1
   9  25  27 19.1207 11.7840  -2
   2   4  38 19.1207 11.7840   1
  13  21  29 34.7689 12.4764  -2
   4   4  38 34.7689 12.4764   1
  18  24  24 24.0792 12.2810  -2
   4   4  38 24.0792 12.2810   1
   9  23  29 27.8628 12.2068  -2
   0   6  38 27.8628 12.2068   1
  17  21  27 7.26346 11.1380  -2
   0   6  38 7.26346 11.1380   1
  18  22  26 10.8303 9.13539  -2
   2   6  38 10.8303 9.13539   1
  10  22  30 18.8975 7.14239  -2
   2   6  38 18.8975 7.14239   1
   0   0   0    0.00    0.00   0
;
_shelx_hkl_checksum              43812
_shelx_fab_file                  
;
    1    1    3    -57.64      0.00
    2    4    4     20.49      0.00
    4    4    4     75.48      0.00
    1    1    5     -8.62      0.00
    1    3    5    -40.73      0.00
    1    5    5     -7.83      0.00
    3    5    5     30.08      0.00
    5    5    5    -59.23      0.00
    0    0    6    -74.19      0.00
    0    2    6     27.61      0.00
    2    2    6    -87.32      0.00
    0    4    6    -49.79      0.00
    2    4    6    -18.47      0.00
    4    4    6     66.46      0.00
    0    6    6     -4.93      0.00
    2    6    6    -13.84      0.00
    4    6    6    -26.84      0.00
    6    6    6    -62.04      0.00
    1    1    7    -36.31      0.00
    1    3    7     39.11      0.00
    1    5    7    -31.26      0.00
    3    5    7     20.34      0.00
    5    5    7     -0.92      0.00
    1    7    7     44.59      0.00
    3    7    7     26.03      0.00
    5    7    7    -10.88      0.00
    7    7    7      1.88      0.00
    0    0    8      1.30      0.00
    0    2    8     -5.16      0.00
    2    2    8     32.37      0.00
    0    4    8     47.95      0.00
    2    4    8      5.16      0.00
    4    4    8     -5.05      0.00
    0    6    8     30.10      0.00
    2    6    8    -24.10      0.00
    4    6    8     15.67      0.00
    6    6    8    -11.00      0.00
    2    8    8     20.55      0.00
    4    8    8     35.04      0.00
    6    8    8      9.33      0.00
    8    8    8    -13.71      0.00
    1    1    9     17.48      0.00
    1    3    9     13.87      0.00
    3    3    9     44.56      0.00
    1    5    9    -20.69      0.00
    3    5    9    -35.93      0.00
    5    5    9     10.90      0.00
    1    7    9      1.42      0.00
    3    7    9     15.78      0.00
    5    7    9     -6.22      0.00
    7    7    9      4.98      0.00
    1    9    9     -9.38      0.00
    3    9    9    -19.48      0.00
    5    9    9     -1.69      0.00
    7    9    9      6.60      0.00
    9    9    9    -31.83      0.00
    0    0   10     72.19      0.00
    0    2   10    -16.19      0.00
    2    2   10     36.60      0.00
    0    4   10     -1.81      0.00
    2    4   10     -8.65      0.00
    4    4   10     17.46      0.00
    0    6   10    -13.21      0.00
    2    6   10    -20.09      0.00
    4    6   10     -1.55      0.00
    6    6   10     -6.91      0.00
    0    8   10     -1.20      0.00
    2    8   10     -7.55      0.00
    4    8   10     12.68      0.00
    6    8   10     -8.96      0.00
    8    8   10      9.55      0.00
    0   10   10     19.65      0.00
    2   10   10    -26.38      0.00
    4   10   10     -3.26      0.00
    6   10   10    -11.37      0.00
    8   10   10     -4.31      0.00
   10   10   10    -13.15      0.00
    1    1   11      0.41      0.00
    1    3   11     -9.01      0.00
    3    3   11     29.02      0.00
    1    5   11      2.45      0.00
    3    5   11     -1.01      0.00
    5    5   11    -16.39      0.00
    1    7   11     15.49      0.00
    3    7   11     12.24      0.00
    5    7   11     11.17      0.00
    7    7   11      1.86      0.00
    1    9   11     -7.50      0.00
    3    9   11      0.31      0.00
    5    9   11      2.75      0.00
    7    9   11    -13.38      0.00
    9    9   11      0.46      0.00
    1   11   11     10.57      0.00
    3   11   11      3.75      0.00
    5   11   11      9.15      0.00
    7   11   11     10.09      0.00
    9   11   11      2.39      0.00
   11   11   11      0.12      0.00
    0    0   12    -27.99      0.00
    0    2   12      9.88      0.00
    2    2   12    -28.41      0.00
    0    4   12     -0.13      0.00
    2    4   12      0.72      0.00
    4    4   12      0.82      0.00
    0    6   12     11.38      0.00
    2    6   12      1.78      0.00
    4    6   12      5.22      0.00
    6    6   12     -5.79      0.00
    0    8   12      6.30      0.00
    2    8   12      5.52      0.00
    4    8   12     -1.72      0.00
    6    8   12     -3.33      0.00
    8    8   12     11.44      0.00
    0   10   12     -9.73      0.00
    2   10   12     -2.89      0.00
    4   10   12      7.08      0.00
    6   10   12      1.51      0.00
    8   10   12     -7.60      0.00
   10   10   12     -2.12      0.00
    0   12   12     10.12      0.00
    2   12   12    -13.21      0.00
    4   12   12     16.64      0.00
    6   12   12     -5.60      0.00
    8   12   12      7.01      0.00
   10   12   12      4.42      0.00
   12   12   12      7.27      0.00
    1    1   13      5.04      0.00
    1    3   13     -1.03      0.00
    3    3   13      0.75      0.00
    1    5   13     -4.07      0.00
    3    5   13    -12.30      0.00
    5    5   13      1.82      0.00
    1    7   13     -1.70      0.00
    3    7   13     -2.84      0.00
    5    7   13      8.20      0.00
    7    7   13      6.15      0.00
    1    9   13     -7.12      0.00
    3    9   13     -9.76      0.00
    5    9   13    -12.41      0.00
    7    9   13     -7.31      0.00
    9    9   13     -1.92      0.00
    1   11   13     -3.73      0.00
    3   11   13      0.65      0.00
    5   11   13      1.47      0.00
    7   11   13      3.04      0.00
    9   11   13      3.04      0.00
   11   11   13      1.91      0.00
    1   13   13    -12.39      0.00
    3   13   13     -5.07      0.00
    5   13   13      2.03      0.00
    7   13   13     -7.52      0.00
    9   13   13     -1.72      0.00
   11   13   13     -1.13      0.00
   13   13   13     12.58      0.00
    0    0   14     11.71      0.00
    0    2   14      4.81      0.00
    2    2   14      3.01      0.00
    0    4   14     12.71      0.00
    2    4   14     -7.36      0.00
    4    4   14      3.98      0.00
    0    6   14      4.60      0.00
    2    6   14     -6.37      0.00
    4    6   14     -3.57      0.00
    6    6   14     10.50      0.00
    0    8   14      0.48      0.00
    2    8   14     -5.74      0.00
    4    8   14      1.75      0.00
    6    8   14     -1.98      0.00
    8    8   14     -0.53      0.00
    0   10   14      5.39      0.00
    2   10   14     -2.67      0.00
    4   10   14     -2.44      0.00
    6   10   14     -3.51      0.00
    8   10   14      1.63      0.00
   10   10   14      2.91      0.00
    0   12   14      0.82      0.00
    2   12   14     -3.57      0.00
    4   12   14      0.21      0.00
    6   12   14     -3.41      0.00
    8   12   14      6.04      0.00
   10   12   14      2.67      0.00
   12   12   14      1.63      0.00
    0   14   14      0.37      0.00
    2   14   14     -2.86      0.00
    4   14   14      3.28      0.00
    6   14   14      2.00      0.00
    8   14   14      2.11      0.00
   10   14   14     -0.22      0.00
   12   14   14     -0.23      0.00
   14   14   14      1.73      0.00
    1    1   15     -4.54      0.00
    1    3   15     -1.18      0.00
    3    3   15    -12.54      0.00
    1    5   15     -1.94      0.00
    3    5   15      2.93      0.00
    5    5   15     -2.10      0.00
    1    7   15      4.96      0.00
    3    7   15     -0.87      0.00
    5    7   15     -1.31      0.00
    7    7   15      4.76      0.00
    1    9   15      3.50      0.00
    3    9   15     -2.29      0.00
    5    9   15     -3.48      0.00
    7    9   15     -0.75      0.00
    9    9   15      8.45      0.00
    1   11   15      4.63      0.00
    3   11   15      4.81      0.00
    5   11   15      8.42      0.00
    7   11   15     -1.18      0.00
    9   11   15     -2.58      0.00
   11   11   15      7.85      0.00
    1   13   15      2.71      0.00
    3   13   15      1.26      0.00
    5   13   15     -7.41      0.00
    7   13   15      2.82      0.00
    9   13   15      4.54      0.00
   11   13   15      2.60      0.00
   13   13   15     -2.90      0.00
    1   15   15     10.65      0.00
    3   15   15      0.96      0.00
    5   15   15     -2.89      0.00
    7   15   15      9.46      0.00
    9   15   15     -0.36      0.00
   11   15   15      1.77      0.00
   13   15   15      1.64      0.00
   15   15   15     -4.32      0.00
    0    0   16     21.20      0.00
    0    2   16     -9.21      0.00
    2    2   16    -14.25      0.00
    0    4   16     -8.74      0.00
    2    4   16     -3.17      0.00
    4    4   16      1.26      0.00
    0    6   16     -2.66      0.00
    2    6   16      0.04      0.00
    4    6   16     -3.43      0.00
    6    6   16      3.71      0.00
    0    8   16      5.92      0.00
    2    8   16     -6.49      0.00
    4    8   16      3.69      0.00
    6    8   16     -4.28      0.00
    8    8   16     -1.83      0.00
    0   10   16      0.14      0.00
    2   10   16      1.10      0.00
    4   10   16      2.30      0.00
    6   10   16     -0.88      0.00
    8   10   16      4.57      0.00
   10   10   16      3.05      0.00
    0   12   16      6.63      0.00
    2   12   16     -0.07      0.00
    4   12   16     -0.09      0.00
    6   12   16     -0.32      0.00
    8   12   16     -4.47      0.00
   10   12   16     -2.47      0.00
   12   12   16      3.86      0.00
    0   14   16      5.67      0.00
    2   14   16      0.81      0.00
    4   14   16     -1.09      0.00
    6   14   16     -1.86      0.00
    8   14   16      4.52      0.00
   10   14   16     -2.96      0.00
   12   14   16      1.83      0.00
   14   14   16     -2.31      0.00
    0   16   16      7.43      0.00
    2   16   16     -2.73      0.00
    4   16   16     -1.23      0.00
    6   16   16     -1.94      0.00
    8   16   16      0.64      0.00
   10   16   16      1.02      0.00
   12   16   16      1.23      0.00
   14   16   16     -2.70      0.00
   16   16   16      1.57      0.00
    1    1   17      4.57      0.00
    1    3   17     -1.04      0.00
    3    3   17     -7.02      0.00
    1    5   17      0.51      0.00
    3    5   17      6.68      0.00
    5    5   17      3.81      0.00
    1    7   17      1.45      0.00
    3    7   17      1.46      0.00
    5    7   17     -0.93      0.00
    7    7   17     -2.83      0.00
    1    9   17     -3.56      0.00
    3    9   17      2.28      0.00
    5    9   17     -0.98      0.00
    7    9   17      2.42      0.00
    9    9   17     -2.70      0.00
    1   11   17      0.32      0.00
    3   11   17      2.14      0.00
    5   11   17     -1.00      0.00
    7   11   17      1.38      0.00
    9   11   17      0.58      0.00
   11   11   17      0.44      0.00
    1   13   17     -1.34      0.00
    3   13   17     -0.02      0.00
    5   13   17     -4.16      0.00
    7   13   17     -0.42      0.00
    9   13   17      0.00      0.00
   11   13   17     -2.61      0.00
   13   13   17     -4.03      0.00
    1   15   17     -1.62      0.00
    3   15   17     -1.13      0.00
    5   15   17      3.68      0.00
    7   15   17      1.49      0.00
    9   15   17     -5.80      0.00
   11   15   17     -5.56      0.00
   13   15   17     -1.27      0.00
   15   15   17      2.27      0.00
    1   17   17      5.72      0.00
    3   17   17     -6.42      0.00
    5   17   17     -6.75      0.00
    7   17   17     -3.26      0.00
    9   17   17      0.17      0.00
   11   17   17      2.02      0.00
   13   17   17     -1.63      0.00
   15   17   17     -1.89      0.00
   17   17   17      2.39      0.00
    0    0   18      6.24      0.00
    0    2   18      5.48      0.00
    2    2   18      0.03      0.00
    0    4   18      3.21      0.00
    2    4   18      3.59      0.00
    4    4   18      6.29      0.00
    0    6   18      7.57      0.00
    2    6   18      2.81      0.00
    4    6   18      4.54      0.00
    6    6   18     -0.83      0.00
    0    8   18      7.19      0.00
    2    8   18     -1.34      0.00
    4    8   18      0.84      0.00
    6    8   18      0.72      0.00
    8    8   18     -7.37      0.00
    0   10   18      2.03      0.00
    2   10   18     -0.38      0.00
    4   10   18      3.20      0.00
    6   10   18     -0.92      0.00
    8   10   18      0.39      0.00
   10   10   18      2.51      0.00
    0   12   18      1.84      0.00
    2   12   18      0.09      0.00
    4   12   18      2.13      0.00
    6   12   18     -1.38      0.00
    8   12   18     -1.32      0.00
   10   12   18      0.87      0.00
   12   12   18     -1.09      0.00
    0   14   18     -2.60      0.00
    2   14   18      0.49      0.00
    4   14   18      2.36      0.00
    6   14   18     -2.29      0.00
    8   14   18      2.15      0.00
   10   14   18     -8.39      0.00
   12   14   18     -4.53      0.00
   14   14   18      1.65      0.00
    0   16   18      6.43      0.00
    2   16   18     -1.77      0.00
    4   16   18     -0.80      0.00
    6   16   18     -2.26      0.00
    8   16   18      2.54      0.00
   10   16   18     -0.97      0.00
   12   16   18     -3.09      0.00
   14   16   18     -0.14      0.00
   16   16   18      0.78      0.00
    0   18   18      3.30      0.00
    2   18   18     -2.00      0.00
    4   18   18      1.29      0.00
    6   18   18      3.43      0.00
    8   18   18     -2.17      0.00
   10   18   18     -0.21      0.00
   12   18   18      2.24      0.00
   14   18   18     -2.12      0.00
   16   18   18      0.12      0.00
   18   18   18      2.93      0.00
    1    1   19      1.35      0.00
    1    3   19      1.37      0.00
    3    3   19     -2.24      0.00
    1    5   19     -2.94      0.00
    3    5   19     -1.06      0.00
    5    5   19      2.09      0.00
    1    7   19     -0.86      0.00
    3    7   19     -3.60      0.00
    5    7   19      1.05      0.00
    7    7   19     -3.73      0.00
    1    9   19     -1.07      0.00
    3    9   19      3.69      0.00
    5    9   19     -1.43      0.00
    7    9   19     -2.14      0.00
    9    9   19     -4.52      0.00
    1   11   19      2.51      0.00
    3   11   19      2.46      0.00
    5   11   19     -6.13      0.00
    7   11   19     -0.30      0.00
    9   11   19      1.36      0.00
   11   11   19     -2.90      0.00
    1   13   19      0.70      0.00
    3   13   19      0.59      0.00
    5   13   19      0.47      0.00
    7   13   19      1.62      0.00
    9   13   19     -5.47      0.00
   11   13   19     -0.04      0.00
   13   13   19      3.48      0.00
    1   15   19      0.05      0.00
    3   15   19      2.78      0.00
    5   15   19     -0.44      0.00
    7   15   19     -2.54      0.00
    9   15   19      0.86      0.00
   11   15   19      0.86      0.00
   13   15   19     -0.11      0.00
   15   15   19      1.95      0.00
    1   17   19     -1.00      0.00
    3   17   19     -0.41      0.00
    5   17   19      1.14      0.00
    7   17   19      3.33      0.00
    9   17   19      1.24      0.00
   11   17   19      6.27      0.00
   13   17   19     -2.14      0.00
   15   17   19     -0.28      0.00
   17   17   19     -0.63      0.00
    1   19   19     -0.29      0.00
    3   19   19      0.89      0.00
    5   19   19      4.68      0.00
    7   19   19      2.41      0.00
    9   19   19     -0.86      0.00
   11   19   19      1.62      0.00
   13   19   19      4.64      0.00
   15   19   19      1.67      0.00
   17   19   19      0.36      0.00
   19   19   19     -0.87      0.00
    0    0   20      0.03      0.00
    0    2   20     -1.31      0.00
    2    2   20      1.46      0.00
    0    4   20     -1.13      0.00
    2    4   20     -2.92      0.00
    4    4   20     -6.95      0.00
    0    6   20     -3.11      0.00
    2    6   20     -7.40      0.00
    4    6   20      3.12      0.00
    6    6   20     -9.65      0.00
    0    8   20     -0.51      0.00
    2    8   20     -1.64      0.00
    4    8   20     -3.73      0.00
    6    8   20      4.05      0.00
    8    8   20      0.31      0.00
    0   10   20      0.34      0.00
    2   10   20     -1.59      0.00
    4   10   20      4.23      0.00
    6   10   20     -2.37      0.00
    8   10   20     -1.39      0.00
   10   10   20      0.43      0.00
    0   12   20     -1.55      0.00
    2   12   20      0.98      0.00
    4   12   20      0.38      0.00
    6   12   20     -0.45      0.00
    8   12   20     -0.33      0.00
   10   12   20      1.30      0.00
   12   12   20     -3.23      0.00
    0   14   20      2.80      0.00
    2   14   20     -5.00      0.00
    4   14   20      0.63      0.00
    6   14   20     -1.13      0.00
    8   14   20     -3.36      0.00
   10   14   20     -0.56      0.00
   12   14   20      3.91      0.00
   14   14   20      0.44      0.00
    0   16   20     -1.38      0.00
    2   16   20     -2.70      0.00
    4   16   20      3.50      0.00
    6   16   20      0.72      0.00
    8   16   20     -1.91      0.00
   10   16   20     -0.12      0.00
   12   16   20      5.92      0.00
   14   16   20      2.78      0.00
   16   16   20     -2.08      0.00
    0   18   20     -4.62      0.00
    2   18   20     -0.45      0.00
    4   18   20      0.60      0.00
    6   18   20     -2.06      0.00
    8   18   20      3.47      0.00
   10   18   20      1.29      0.00
   12   18   20      2.99      0.00
   14   18   20     -0.59      0.00
   16   18   20     -2.75      0.00
   18   18   20      1.74      0.00
    0   20   20     -2.25      0.00
    2   20   20     -1.21      0.00
    4   20   20      0.96      0.00
    6   20   20     -1.04      0.00
    8   20   20      3.03      0.00
   10   20   20     -2.27      0.00
   12   20   20      1.97      0.00
   14   20   20      3.11      0.00
   16   20   20      0.58      0.00
   18   20   20     -0.31      0.00
   20   20   20     -9.54      0.00
    1    1   21      1.47      0.00
    1    3   21      1.07      0.00
    3    3   21      8.65      0.00
    1    5   21      0.37      0.00
    3    5   21     -1.94      0.00
    5    5   21     -0.38      0.00
    1    7   21      4.34      0.00
    3    7   21     -1.16      0.00
    5    7   21     -0.58      0.00
    7    7   21      1.40      0.00
    1    9   21     -0.07      0.00
    3    9   21      4.98      0.00
    5    9   21      2.67      0.00
    7    9   21      5.55      0.00
    9    9   21      2.00      0.00
    1   11   21     -4.84      0.00
    3   11   21      6.16      0.00
    5   11   21      1.12      0.00
    7   11   21     -2.18      0.00
    9   11   21      0.82      0.00
   11   11   21      1.18      0.00
    1   13   21      0.60      0.00
    3   13   21     -1.57      0.00
    5   13   21      0.68      0.00
    7   13   21      0.97      0.00
    9   13   21     -2.83      0.00
   11   13   21      1.70      0.00
   13   13   21      0.98      0.00
    1   15   21     -1.25      0.00
    3   15   21     -2.35      0.00
    5   15   21      2.36      0.00
    7   15   21     -2.27      0.00
    9   15   21     -9.40      0.00
   11   15   21      0.79      0.00
   13   15   21      2.94      0.00
   15   15   21      1.73      0.00
    1   17   21     -0.26      0.00
    3   17   21      0.19      0.00
    5   17   21     -3.37      0.00
    7   17   21     -0.19      0.00
    9   17   21     -1.19      0.00
   11   17   21     -0.34      0.00
   13   17   21     -3.93      0.00
   15   17   21      1.14      0.00
   17   17   21     -1.37      0.00
    1   19   21     -1.11      0.00
    3   19   21     -1.34      0.00
    5   19   21     -0.03      0.00
    7   19   21      1.05      0.00
    9   19   21     -1.34      0.00
   11   19   21     -0.52      0.00
   13   19   21     -2.25      0.00
   15   19   21     -1.43      0.00
   17   19   21     -2.99      0.00
   19   19   21      1.22      0.00
    1   21   21     -4.39      0.00
    3   21   21      1.63      0.00
    5   21   21     -1.83      0.00
    7   21   21      0.15      0.00
    9   21   21      1.64      0.00
   11   21   21     -0.35      0.00
   13   21   21      0.39      0.00
   15   21   21      3.75      0.00
   17   21   21     -2.59      0.00
   19   21   21      6.77      0.00
   21   21   21    -15.93      0.00
    0    0   22     -4.76      0.00
    0    2   22      9.62      0.00
    2    2   22      0.26      0.00
    0    4   22      1.62      0.00
    2    4   22      4.79      0.00
    4    4   22     -1.29      0.00
    0    6   22     -0.98      0.00
    2    6   22      1.04      0.00
    4    6   22      1.44      0.00
    6    6   22      4.49      0.00
    0    8   22     -1.86      0.00
    2    8   22      1.42      0.00
    4    8   22     10.95      0.00
    6    8   22     -1.12      0.00
    8    8   22      1.92      0.00
    0   10   22      0.05      0.00
    2   10   22      2.37      0.00
    4   10   22      0.85      0.00
    6   10   22     -1.10      0.00
    8   10   22      0.85      0.00
   10   10   22      2.64      0.00
    0   12   22      1.63      0.00
    2   12   22     -1.00      0.00
    4   12   22      4.00      0.00
    6   12   22     -0.88      0.00
    8   12   22      1.87      0.00
   10   12   22     -3.26      0.00
   12   12   22      4.26      0.00
    0   14   22      1.46      0.00
    2   14   22     -4.01      0.00
    4   14   22     -0.27      0.00
    6   14   22      2.55      0.00
    8   14   22     -4.89      0.00
   10   14   22     -2.13      0.00
   12   14   22      2.27      0.00
   14   14   22      2.16      0.00
    0   16   22      1.84      0.00
    2   16   22      4.31      0.00
    4   16   22     -1.85      0.00
    6   16   22     -0.12      0.00
    8   16   22      2.15      0.00
   10   16   22     -6.29      0.00
   12   16   22      1.44      0.00
   14   16   22     -1.02      0.00
   16   16   22      1.78      0.00
    0   18   22      3.03      0.00
    2   18   22     -0.86      0.00
    4   18   22      0.24      0.00
    6   18   22     -1.62      0.00
    8   18   22     -0.02      0.00
   10   18   22     -0.08      0.00
   12   18   22     -8.38      0.00
   14   18   22     -0.25      0.00
   16   18   22     -0.25      0.00
   18   18   22     -1.02      0.00
    0   20   22      0.36      0.00
    2   20   22     -0.98      0.00
    4   20   22     -0.23      0.00
    6   20   22     -0.46      0.00
    8   20   22      3.04      0.00
   10   20   22     -2.29      0.00
   12   20   22     -0.42      0.00
   14   20   22     -0.18      0.00
   16   20   22     -3.20      0.00
   18   20   22      2.95      0.00
   20   20   22      0.70      0.00
    0   22   22     -5.48      0.00
    2   22   22      1.13      0.00
    4   22   22      3.67      0.00
    6   22   22     -0.91      0.00
    8   22   22     -0.90      0.00
   10   22   22      0.58      0.00
   12   22   22      3.75      0.00
   14   22   22      2.91      0.00
   16   22   22     -0.21      0.00
   18   22   22      4.13      0.00
   20   22   22     -0.27      0.00
   22   22   22      3.18      0.00
    1    1   23      1.85      0.00
    1    3   23      0.00      0.00
    3    3   23      0.98      0.00
    1    5   23     -3.78      0.00
    3    5   23     -1.99      0.00
    5    5   23     -3.02      0.00
    1    7   23     -5.89      0.00
    3    7   23      4.08      0.00
    5    7   23      4.73      0.00
    7    7   23     -0.02      0.00
    1    9   23     -1.86      0.00
    3    9   23      0.97      0.00
    5    9   23      2.29      0.00
    7    9   23     -6.45      0.00
    9    9   23      1.79      0.00
    1   11   23     -2.47      0.00
    3   11   23      0.72      0.00
    5   11   23     -1.56      0.00
    7   11   23     -0.88      0.00
    9   11   23      1.24      0.00
   11   11   23     -3.28      0.00
    1   13   23     -1.05      0.00
    3   13   23      0.86      0.00
    5   13   23     -0.82      0.00
    7   13   23      1.91      0.00
    9   13   23      1.04      0.00
   11   13   23      3.92      0.00
   13   13   23      0.80      0.00
    1   15   23     -0.87      0.00
    3   15   23     -2.36      0.00
    5   15   23     -2.02      0.00
    7   15   23     11.10      0.00
    9   15   23     -0.57      0.00
   11   15   23     -0.22      0.00
   13   15   23      0.21      0.00
   15   15   23     -0.33      0.00
    1   17   23      4.33      0.00
    3   17   23     -1.36      0.00
    5   17   23      0.93      0.00
    7   17   23      1.77      0.00
    9   17   23     -3.63      0.00
   11   17   23      1.10      0.00
   13   17   23      2.26      0.00
   15   17   23      5.75      0.00
   17   17   23     -6.37      0.00
    1   19   23     -1.79      0.00
    3   19   23      0.64      0.00
    5   19   23      1.15      0.00
    7   19   23     -3.70      0.00
    9   19   23      4.39      0.00
   11   19   23     -2.25      0.00
   13   19   23     -6.25      0.00
   15   19   23      6.75      0.00
   17   19   23     -3.87      0.00
   19   19   23      3.16      0.00
    1   21   23      0.66      0.00
    3   21   23      0.62      0.00
    5   21   23     -0.78      0.00
    7   21   23      0.39      0.00
    9   21   23     -0.89      0.00
   11   21   23      3.50      0.00
   13   21   23      1.87      0.00
   15   21   23      2.03      0.00
   17   21   23      1.56      0.00
   19   21   23     -0.25      0.00
   21   21   23      3.10      0.00
    1   23   23     -3.42      0.00
    3   23   23      3.80      0.00
    5   23   23      0.88      0.00
    7   23   23      2.38      0.00
    9   23   23     -2.77      0.00
   11   23   23     -0.36      0.00
   13   23   23     -1.86      0.00
   15   23   23     -2.85      0.00
   17   23   23      0.75      0.00
   19   23   23      4.00      0.00
    0    0   24      8.80      0.00
    0    2   24     -6.15      0.00
    2    2   24     -1.80      0.00
    0    4   24     -7.12      0.00
    2    4   24     -2.31      0.00
    4    4   24      0.08      0.00
    0    6   24     -1.16      0.00
    2    6   24     -2.78      0.00
    4    6   24      0.02      0.00
    6    6   24     -3.43      0.00
    0    8   24     -2.35      0.00
    2    8   24     -0.17      0.00
    4    8   24     -0.05      0.00
    6    8   24      0.67      0.00
    8    8   24      2.52      0.00
    0   10   24     -4.48      0.00
    2   10   24     -3.12      0.00
    4   10   24      2.65      0.00
    6   10   24     -3.90      0.00
    8   10   24     -4.98      0.00
   10   10   24     -2.27      0.00
    0   12   24     -3.72      0.00
    2   12   24     -0.68      0.00
    4   12   24      1.40      0.00
    6   12   24     -0.98      0.00
    8   12   24      1.50      0.00
   10   12   24      2.92      0.00
   12   12   24      1.11      0.00
    0   14   24     -0.44      0.00
    2   14   24     -0.81      0.00
    4   14   24     -2.69      0.00
    6   14   24      0.56      0.00
    8   14   24      3.16      0.00
   10   14   24      0.35      0.00
   12   14   24      2.49      0.00
   14   14   24     -1.61      0.00
    0   16   24      0.53      0.00
    2   16   24      0.86      0.00
    4   16   24     -1.96      0.00
    6   16   24      3.75      0.00
    8   16   24      8.13      0.00
   10   16   24      0.43      0.00
   12   16   24     -1.66      0.00
   14   16   24      2.85      0.00
   16   16   24     -5.97      0.00
    0   18   24     -0.17      0.00
    2   18   24     -1.01      0.00
    4   18   24      0.32      0.00
    6   18   24     -4.70      0.00
    8   18   24      2.71      0.00
   10   18   24     -6.31      0.00
   12   18   24      3.85      0.00
   14   18   24      1.00      0.00
   16   18   24      3.84      0.00
   18   18   24     -6.72      0.00
    0   20   24     -2.19      0.00
    2   20   24     -0.52      0.00
    4   20   24      1.81      0.00
    6   20   24      1.31      0.00
    8   20   24     -2.77      0.00
   10   20   24      2.73      0.00
   12   20   24     -1.42      0.00
   14   20   24      4.10      0.00
   16   20   24     -0.66      0.00
   18   20   24     -2.71      0.00
   20   20   24      1.60      0.00
    0   22   24     -0.33      0.00
    2   22   24     -2.55      0.00
    4   22   24      5.37      0.00
    6   22   24     -0.15      0.00
    8   22   24      1.07      0.00
   10   22   24     -1.11      0.00
   12   22   24     -1.01      0.00
   14   22   24     -1.87      0.00
   16   22   24      2.50      0.00
   18   22   24      4.01      0.00
   20   22   24      0.22      0.00
    0   24   24      2.23      0.00
    2   24   24     -0.67      0.00
    4   24   24     -3.13      0.00
    6   24   24      0.35      0.00
    8   24   24     -4.09      0.00
   10   24   24      0.12      0.00
   12   24   24     -5.02      0.00
   14   24   24      1.97      0.00
   16   24   24     -1.96      0.00
   18   24   24      0.61      0.00
    1    1   25      0.29      0.00
    1    3   25     -0.99      0.00
    3    3   25     -1.96      0.00
    1    5   25     -1.15      0.00
    3    5   25     -1.53      0.00
    5    5   25      2.14      0.00
    1    7   25     -0.77      0.00
    3    7   25      6.19      0.00
    5    7   25      1.39      0.00
    7    7   25     -1.54      0.00
    1    9   25      0.17      0.00
    3    9   25     -0.49      0.00
    5    9   25      2.58      0.00
    7    9   25     -0.95      0.00
    9    9   25     -2.70      0.00
    1   11   25      0.19      0.00
    3   11   25      1.18      0.00
    5   11   25     -5.82      0.00
    7   11   25      0.84      0.00
    9   11   25     -3.17      0.00
   11   11   25      0.07      0.00
    1   13   25     -0.08      0.00
    3   13   25      2.20      0.00
    5   13   25     -1.80      0.00
    7   13   25     -3.12      0.00
    9   13   25     -1.92      0.00
   11   13   25      0.88      0.00
   13   13   25      4.20      0.00
    1   15   25      0.99      0.00
    3   15   25      0.00      0.00
    5   15   25      2.54      0.00
    7   15   25     -0.77      0.00
    9   15   25      1.12      0.00
   11   15   25      2.17      0.00
   13   15   25     -0.19      0.00
   15   15   25     -3.12      0.00
    1   17   25      1.04      0.00
    3   17   25      1.79      0.00
    5   17   25     -4.56      0.00
    7   17   25      1.63      0.00
    9   17   25      5.83      0.00
   11   17   25     -3.21      0.00
   13   17   25     -1.58      0.00
   15   17   25     -4.11      0.00
   17   17   25     -6.85      0.00
    1   19   25      1.70      0.00
    3   19   25      0.02      0.00
    5   19   25     -1.61      0.00
    7   19   25      2.17      0.00
    9   19   25     -5.34      0.00
   11   19   25      2.04      0.00
   13   19   25     -3.93      0.00
   15   19   25      2.47      0.00
   17   19   25     -1.85      0.00
   19   19   25     -1.77      0.00
    1   21   25     -2.85      0.00
    3   21   25      0.59      0.00
    5   21   25     11.91      0.00
    7   21   25      3.97      0.00
    9   21   25     -5.68      0.00
   11   21   25     -0.70      0.00
   13   21   25     -0.03      0.00
   15   21   25      2.51      0.00
   17   21   25      0.31      0.00
   19   21   25      1.43      0.00
    1   23   25      2.25      0.00
    3   23   25     -1.61      0.00
    5   23   25     -2.35      0.00
    7   23   25     -3.11      0.00
    9   23   25     -1.47      0.00
   11   23   25      0.83      0.00
   13   23   25     -3.47      0.00
   15   23   25      1.06      0.00
   17   23   25     -2.74      0.00
    1   25   25     -2.46      0.00
    3   25   25      1.35      0.00
    5   25   25     -6.26      0.00
    7   25   25      2.42      0.00
    9   25   25      1.99      0.00
   11   25   25     -1.11      0.00
   13   25   25     -0.11      0.00
   15   25   25      0.25      0.00
    0    0   26      2.62      0.00
    0    2   26      6.01      0.00
    2    2   26     -2.85      0.00
    0    4   26      2.56      0.00
    2    4   26     -0.93      0.00
    4    4   26      1.93      0.00
    0    6   26     -3.37      0.00
    2    6   26      1.31      0.00
    4    6   26      0.45      0.00
    6    6   26      3.88      0.00
    0    8   26      0.28      0.00
    2    8   26      3.68      0.00
    4    8   26      3.45      0.00
    6    8   26      1.98      0.00
    8    8   26     -2.03      0.00
    0   10   26      0.27      0.00
    2   10   26      0.15      0.00
    4   10   26      0.61      0.00
    6   10   26     -6.65      0.00
    8   10   26     -0.51      0.00
   10   10   26      1.43      0.00
    0   12   26     -2.58      0.00
    2   12   26      3.16      0.00
    4   12   26     -2.81      0.00
    6   12   26     -1.81      0.00
    8   12   26      5.00      0.00
   10   12   26     -2.52      0.00
   12   12   26      0.92      0.00
    0   14   26      3.01      0.00
    2   14   26     -1.79      0.00
    4   14   26      2.61      0.00
    6   14   26     -2.84      0.00
    8   14   26     -2.80      0.00
   10   14   26     -0.83      0.00
   12   14   26      2.04      0.00
   14   14   26     -0.02      0.00
    0   16   26      0.37      0.00
    2   16   26     -2.03      0.00
    4   16   26      3.18      0.00
    6   16   26      0.04      0.00
    8   16   26      2.48      0.00
   10   16   26     -1.03      0.00
   12   16   26      4.35      0.00
   14   16   26     -4.44      0.00
   16   16   26     -5.47      0.00
    0   18   26      2.12      0.00
    2   18   26      4.34      0.00
    4   18   26     -3.69      0.00
    6   18   26     -0.82      0.00
    8   18   26     -1.15      0.00
   10   18   26      0.71      0.00
   12   18   26     -2.67      0.00
   14   18   26      1.37      0.00
   16   18   26     -5.65      0.00
   18   18   26      3.69      0.00
    0   20   26      1.57      0.00
    2   20   26     -1.20      0.00
    4   20   26      5.93      0.00
    6   20   26      5.46      0.00
    8   20   26      1.02      0.00
   10   20   26     -4.27      0.00
   12   20   26      1.92      0.00
   14   20   26     -0.16      0.00
   16   20   26     -0.42      0.00
   18   20   26      0.66      0.00
   20   20   26      1.96      0.00
    0   22   26      3.36      0.00
    2   22   26      0.76      0.00
    4   22   26     -2.38      0.00
    6   22   26      0.40      0.00
    8   22   26     -3.58      0.00
   10   22   26      1.43      0.00
   12   22   26     -0.81      0.00
   14   22   26      0.87      0.00
   16   22   26      0.98      0.00
   18   22   26     -2.28      0.00
    0   24   26      0.52      0.00
    2   24   26      0.10      0.00
    4   24   26     -2.33      0.00
    6   24   26     -1.32      0.00
    8   24   26     -0.16      0.00
   10   24   26      0.51      0.00
   12   24   26      1.93      0.00
   14   24   26     -1.08      0.00
    0   26   26      0.93      0.00
    2   26   26      0.92      0.00
    4   26   26      1.94      0.00
    6   26   26     -2.58      0.00
    8   26   26      1.04      0.00
   10   26   26      2.30      0.00
    1    1   27      1.03      0.00
    1    3   27      0.63      0.00
    3    3   27     -5.92      0.00
    1    5   27     -0.25      0.00
    3    5   27      1.80      0.00
    5    5   27     -0.69      0.00
    1    7   27      1.32      0.00
    3    7   27     -0.99      0.00
    5    7   27     -3.25      0.00
    7    7   27      4.01      0.00
    1    9   27      0.23      0.00
    3    9   27     -0.74      0.00
    5    9   27     -4.26      0.00
    7    9   27     -3.42      0.00
    9    9   27      2.83      0.00
    1   11   27     -3.45      0.00
    3   11   27      2.55      0.00
    5   11   27     -1.06      0.00
    7   11   27      0.21      0.00
    9   11   27      5.57      0.00
   11   11   27      1.21      0.00
    1   13   27     -5.50      0.00
    3   13   27      0.40      0.00
    5   13   27      0.16      0.00
    7   13   27      4.51      0.00
    9   13   27     -0.46      0.00
   11   13   27      0.17      0.00
   13   13   27     -0.89      0.00
    1   15   27     -0.08      0.00
    3   15   27     -1.81      0.00
    5   15   27     -0.06      0.00
    7   15   27     -1.05      0.00
    9   15   27      2.47      0.00
   11   15   27     -1.25      0.00
   13   15   27     -1.25      0.00
   15   15   27     -0.86      0.00
    1   17   27      0.25      0.00
    3   17   27     -3.45      0.00
    5   17   27      3.13      0.00
    7   17   27      1.67      0.00
    9   17   27     -4.44      0.00
   11   17   27      0.34      0.00
   13   17   27      2.72      0.00
   15   17   27      0.67      0.00
   17   17   27     -2.61      0.00
    1   19   27      1.49      0.00
    3   19   27     -0.26      0.00
    5   19   27      2.38      0.00
    7   19   27      0.72      0.00
    9   19   27     -4.98      0.00
   11   19   27      3.86      0.00
   13   19   27      2.02      0.00
   15   19   27      2.21      0.00
   17   19   27      0.21      0.00
   19   19   27      4.97      0.00
    1   21   27      4.87      0.00
    3   21   27     -2.86      0.00
    5   21   27     -3.65      0.00
    7   21   27     -2.63      0.00
    9   21   27      1.86      0.00
   11   21   27      7.58      0.00
   13   21   27     -0.50      0.00
   15   21   27      2.70      0.00
   17   21   27     -1.34      0.00
    1   23   27     -2.61      0.00
    3   23   27      2.31      0.00
    5   23   27     -3.19      0.00
    7   23   27     -0.91      0.00
    9   23   27     -2.51      0.00
   11   23   27      0.24      0.00
   13   23   27     -0.34      0.00
   15   23   27     -0.56      0.00
    1   25   27      3.89      0.00
    3   25   27     -1.62      0.00
    5   25   27      4.14      0.00
    7   25   27     -2.22      0.00
    9   25   27      1.30      0.00
   11   25   27      2.48      0.00
    1   27   27      7.17      0.00
    3   27   27      4.14      0.00
    5   27   27    -10.98      0.00
    0    0   28      0.59      0.00
    0    2   28     -3.82      0.00
    2    2   28     -0.33      0.00
    0    4   28      8.83      0.00
    2    4   28     -4.39      0.00
    4    4   28     -2.66      0.00
    0    6   28     -1.82      0.00
    2    6   28     -1.35      0.00
    4    6   28     -0.22      0.00
    6    6   28     -4.43      0.00
    0    8   28     -2.64      0.00
    2    8   28      0.40      0.00
    4    8   28     -0.93      0.00
    6    8   28     -3.66      0.00
    8    8   28     -0.81      0.00
    0   10   28     -0.27      0.00
    2   10   28     -0.54      0.00
    4   10   28     -4.60      0.00
    6   10   28     -3.88      0.00
    8   10   28      5.96      0.00
   10   10   28     -4.93      0.00
    0   12   28     -3.60      0.00
    2   12   28     -0.41      0.00
    4   12   28      3.56      0.00
    6   12   28      3.97      0.00
    8   12   28      0.55      0.00
   10   12   28      1.43      0.00
   12   12   28      0.69      0.00
    0   14   28     -7.44      0.00
    2   14   28     -0.08      0.00
    4   14   28      0.75      0.00
    6   14   28     -1.77      0.00
    8   14   28      0.87      0.00
   10   14   28     -1.46      0.00
   12   14   28      1.67      0.00
   14   14   28     -3.97      0.00
    0   16   28      5.74      0.00
    2   16   28     -4.99      0.00
    4   16   28     -1.82      0.00
    6   16   28      3.23      0.00
    8   16   28     -1.49      0.00
   10   16   28      0.00      0.00
   12   16   28     -4.12      0.00
   14   16   28      2.33      0.00
   16   16   28      1.18      0.00
    0   18   28      3.54      0.00
    2   18   28      0.69      0.00
    4   18   28     -0.03      0.00
    6   18   28      0.72      0.00
    8   18   28      0.50      0.00
   10   18   28     -3.96      0.00
   12   18   28      4.80      0.00
   14   18   28      0.88      0.00
   16   18   28      0.52      0.00
   18   18   28      3.36      0.00
    0   20   28      3.00      0.00
    2   20   28      2.28      0.00
    4   20   28     -3.75      0.00
    6   20   28     -1.59      0.00
    8   20   28     -2.45      0.00
   10   20   28      7.91      0.00
   12   20   28      0.03      0.00
   14   20   28      0.93      0.00
   16   20   28      1.51      0.00
    0   22   28     -4.10      0.00
    2   22   28     -4.09      0.00
    4   22   28     -1.02      0.00
    6   22   28     -1.00      0.00
    8   22   28     -1.21      0.00
   10   22   28     -1.82      0.00
   12   22   28      1.64      0.00
   14   22   28      1.85      0.00
    0   24   28      2.41      0.00
    2   24   28      1.51      0.00
    4   24   28      4.24      0.00
    6   24   28     -3.65      0.00
    8   24   28      1.35      0.00
   10   24   28      1.93      0.00
    0   26   28      5.56      0.00
    2   26   28      3.03      0.00
    4   26   28     -4.66      0.00
    1    1   29      3.86      0.00
    1    3   29     -1.22      0.00
    3    3   29     -1.01      0.00
    1    5   29      2.32      0.00
    3    5   29     -0.49      0.00
    5    5   29     -1.82      0.00
    1    7   29     -1.95      0.00
    3    7   29     -0.25      0.00
    5    7   29      3.25      0.00
    7    7   29     -3.04      0.00
    1    9   29     -4.67      0.00
    3    9   29      1.48      0.00
    5    9   29      0.60      0.00
    7    9   29      2.26      0.00
    9    9   29     -4.36      0.00
    1   11   29     10.08      0.00
    3   11   29      0.69      0.00
    5   11   29     -0.90      0.00
    7   11   29     -1.33      0.00
    9   11   29     -5.01      0.00
   11   11   29      6.19      0.00
    1   13   29     -2.86      0.00
    3   13   29      1.57      0.00
    5   13   29      1.05      0.00
    7   13   29      1.66      0.00
    9   13   29     -0.01      0.00
   11   13   29     -4.50      0.00
   13   13   29      3.67      0.00
    1   15   29     -0.72      0.00
    3   15   29      0.32      0.00
    5   15   29     -2.31      0.00
    7   15   29     -0.68      0.00
    9   15   29     -1.33      0.00
   11   15   29      1.10      0.00
   13   15   29      2.14      0.00
   15   15   29      3.66      0.00
    1   17   29      0.71      0.00
    3   17   29     -0.93      0.00
    5   17   29      0.52      0.00
    7   17   29      1.82      0.00
    9   17   29     -0.65      0.00
   11   17   29      1.10      0.00
   13   17   29     -2.48      0.00
   15   17   29     -0.87      0.00
   17   17   29      0.02      0.00
    1   19   29      3.04      0.00
    3   19   29      0.21      0.00
    5   19   29     -0.94      0.00
    7   19   29     -1.59      0.00
    9   19   29      1.30      0.00
   11   19   29     -0.09      0.00
   13   19   29     -1.73      0.00
   15   19   29     -0.77      0.00
    1   21   29     -3.06      0.00
    3   21   29     -2.66      0.00
    5   21   29      0.62      0.00
    7   21   29      1.65      0.00
    9   21   29      2.28      0.00
   11   21   29      2.23      0.00
   13   21   29     -8.07      0.00
    1   23   29      0.40      0.00
    3   23   29     -4.91      0.00
    5   23   29      3.94      0.00
    7   23   29     -3.02      0.00
    9   23   29      1.30      0.00
    1   25   29      1.96      0.00
    3   25   29      1.74      0.00
    0    0   30     10.64      0.00
    0    2   30      3.04      0.00
    2    2   30     -3.07      0.00
    0    4   30      0.44      0.00
    2    4   30      2.43      0.00
    4    4   30      3.99      0.00
    0    6   30      0.10      0.00
    2    6   30      0.55      0.00
    4    6   30      0.88      0.00
    6    6   30      2.22      0.00
    0    8   30      3.09      0.00
    2    8   30     -0.11      0.00
    4    8   30      4.77      0.00
    6    8   30     -0.14      0.00
    8    8   30      2.75      0.00
    0   10   30     -0.19      0.00
    2   10   30      3.63      0.00
    4   10   30      0.47      0.00
    6   10   30      2.73      0.00
    8   10   30     -6.39      0.00
   10   10   30     -2.03      0.00
    0   12   30      4.73      0.00
    2   12   30      5.87      0.00
    4   12   30      0.62      0.00
    6   12   30      0.19      0.00
    8   12   30     -0.51      0.00
   10   12   30     -0.01      0.00
   12   12   30      0.84      0.00
    0   14   30     -0.32      0.00
    2   14   30     -0.43      0.00
    4   14   30     -1.30      0.00
    6   14   30     -2.61      0.00
    8   14   30      2.77      0.00
   10   14   30     -1.19      0.00
   12   14   30      0.29      0.00
   14   14   30      6.90      0.00
    0   16   30     -5.33      0.00
    2   16   30     -1.57      0.00
    4   16   30      0.48      0.00
    6   16   30      0.33      0.00
    8   16   30      2.59      0.00
   10   16   30     -1.59      0.00
   12   16   30      0.62      0.00
   14   16   30      0.40      0.00
   16   16   30      2.29      0.00
    0   18   30     -0.30      0.00
    2   18   30     -3.68      0.00
    4   18   30      2.06      0.00
    6   18   30      0.75      0.00
    8   18   30     -3.24      0.00
   10   18   30      3.47      0.00
   12   18   30     -4.22      0.00
   14   18   30      1.02      0.00
   16   18   30     -2.09      0.00
    0   20   30      4.37      0.00
    2   20   30     -1.76      0.00
    4   20   30     -0.25      0.00
    6   20   30     -0.30      0.00
    8   20   30      1.49      0.00
   10   20   30      1.03      0.00
   12   20   30     -3.06      0.00
    0   22   30     -3.15      0.00
    2   22   30     -4.06      0.00
    4   22   30     -1.35      0.00
    6   22   30      2.06      0.00
    8   22   30      2.10      0.00
   10   22   30      4.96      0.00
    0   24   30     -0.34      0.00
    2   24   30      7.03      0.00
    1    1   31      1.38      0.00
    1    3   31     -1.94      0.00
    3    3   31     -0.92      0.00
    1    5   31      2.18      0.00
    3    5   31      1.50      0.00
    5    5   31      0.24      0.00
    1    7   31      2.42      0.00
    3    7   31      4.17      0.00
    5    7   31     -0.15      0.00
    7    7   31     -3.70      0.00
    1    9   31      2.40      0.00
    3    9   31      0.11      0.00
    5    9   31     -2.94      0.00
    7    9   31     -2.86      0.00
    9    9   31     -2.79      0.00
    1   11   31      1.34      0.00
    3   11   31      0.97      0.00
    5   11   31      3.37      0.00
    7   11   31      0.58      0.00
    9   11   31      1.35      0.00
   11   11   31     -2.77      0.00
    1   13   31     -0.14      0.00
    3   13   31      1.50      0.00
    5   13   31     -0.40      0.00
    7   13   31     -2.39      0.00
    9   13   31      0.26      0.00
   11   13   31     -0.83      0.00
   13   13   31      0.88      0.00
    1   15   31     -1.43      0.00
    3   15   31      2.72      0.00
    5   15   31     -0.95      0.00
    7   15   31      3.20      0.00
    9   15   31     -0.64      0.00
   11   15   31      2.72      0.00
   13   15   31     -1.51      0.00
   15   15   31      1.51      0.00
    1   17   31     -3.68      0.00
    3   17   31     -1.49      0.00
    5   17   31      0.92      0.00
    7   17   31     -0.75      0.00
    9   17   31      1.28      0.00
   11   17   31     -0.54      0.00
   13   17   31     -3.43      0.00
   15   17   31      0.59      0.00
    1   19   31      0.67      0.00
    3   19   31     -2.72      0.00
    5   19   31      0.95      0.00
    7   19   31      0.17      0.00
    9   19   31     -1.54      0.00
   11   19   31     -1.60      0.00
    1   21   31      2.24      0.00
    3   21   31     -1.10      0.00
    5   21   31      1.77      0.00
    7   21   31     -0.95      0.00
    9   21   31      3.96      0.00
    0    0   32      1.01      0.00
    0    2   32     -3.40      0.00
    2    2   32      0.48      0.00
    0    4   32      0.98      0.00
    2    4   32     -3.65      0.00
    4    4   32      3.99      0.00
    0    6   32      3.59      0.00
    2    6   32     -2.74      0.00
    4    6   32     -3.11      0.00
    6    6   32      0.00      0.00
    0    8   32      2.18      0.00
    2    8   32      2.76      0.00
    4    8   32     -1.67      0.00
    6    8   32     -3.27      0.00
    8    8   32     -1.00      0.00
    0   10   32     -5.76      0.00
    2   10   32      0.19      0.00
    4   10   32     -1.29      0.00
    6   10   32     -0.74      0.00
    8   10   32      0.17      0.00
   10   10   32     -1.23      0.00
    0   12   32     -0.26      0.00
    2   12   32     -2.86      0.00
    4   12   32      5.32      0.00
    6   12   32     -4.74      0.00
    8   12   32      3.35      0.00
   10   12   32      1.79      0.00
   12   12   32     -2.93      0.00
    0   14   32     -0.75      0.00
    2   14   32      5.87      0.00
    4   14   32      1.04      0.00
    6   14   32      0.28      0.00
    8   14   32     -4.17      0.00
   10   14   32      0.34      0.00
   12   14   32     -2.13      0.00
   14   14   32      2.91      0.00
    0   16   32     -2.38      0.00
    2   16   32      3.03      0.00
    4   16   32      0.99      0.00
    6   16   32      0.30      0.00
    8   16   32     -2.13      0.00
   10   16   32      7.16      0.00
   12   16   32     -2.31      0.00
   14   16   32     -3.84      0.00
    0   18   32      4.25      0.00
    2   18   32     -3.75      0.00
    4   18   32     -2.18      0.00
    6   18   32      1.34      0.00
    8   18   32     -3.26      0.00
   10   18   32     -0.48      0.00
    0   20   32      5.07      0.00
    2   20   32      2.38      0.00
    4   20   32      2.30      0.00
    6   20   32      1.31      0.00
    8   20   32      0.20      0.00
    1    1   33     -0.03      0.00
    1    3   33      1.15      0.00
    3    3   33      3.60      0.00
    1    5   33     -1.06      0.00
    3    5   33     -6.85      0.00
    5    5   33      2.18      0.00
    1    7   33     -1.38      0.00
    3    7   33     -2.86      0.00
    5    7   33      0.72      0.00
    7    7   33      4.93      0.00
    1    9   33     -4.02      0.00
    3    9   33     -0.50      0.00
    5    9   33     -1.91      0.00
    7    9   33      7.11      0.00
    9    9   33      1.28      0.00
    1   11   33     -4.71      0.00
    3   11   33      2.56      0.00
    5   11   33      2.80      0.00
    7   11   33      2.02      0.00
    9   11   33     -0.23      0.00
   11   11   33      2.26      0.00
    1   13   33      3.10      0.00
    3   13   33      1.65      0.00
    5   13   33     -2.30      0.00
    7   13   33    -10.77      0.00
    9   13   33      4.71      0.00
   11   13   33      4.00      0.00
   13   13   33     -7.31      0.00
    1   15   33      4.74      0.00
    3   15   33      2.77      0.00
    5   15   33      1.50      0.00
    7   15   33     -3.87      0.00
    9   15   33     -0.49      0.00
   11   15   33      0.32      0.00
   13   15   33      0.54      0.00
    1   17   33     -3.41      0.00
    3   17   33     -1.65      0.00
    5   17   33      0.94      0.00
    7   17   33      0.83      0.00
    9   17   33     -3.81      0.00
    1   19   33      2.36      0.00
    3   19   33     -0.92      0.00
    5   19   33     -0.68      0.00
    0    0   34      1.50      0.00
    0    2   34      2.28      0.00
    2    2   34      1.32      0.00
    0    4   34      1.39      0.00
    2    4   34      2.88      0.00
    4    4   34     -3.59      0.00
    0    6   34     -0.17      0.00
    2    6   34     -4.73      0.00
    4    6   34     -0.34      0.00
    6    6   34      0.70      0.00
    0    8   34     -5.14      0.00
    2    8   34     -2.69      0.00
    4    8   34      2.44      0.00
    6    8   34      5.54      0.00
    8    8   34      7.46      0.00
    0   10   34     -5.44      0.00
    2   10   34     -1.57      0.00
    4   10   34      0.49      0.00
    6   10   34     10.20      0.00
    8   10   34      3.55      0.00
   10   10   34     -3.28      0.00
    0   12   34      2.92      0.00
    2   12   34      2.38      0.00
    4   12   34     -2.18      0.00
    6   12   34     -4.07      0.00
    8   12   34     -2.86      0.00
   10   12   34      2.65      0.00
   12   12   34      6.23      0.00
    0   14   34      2.31      0.00
    2   14   34      1.85      0.00
    4   14   34      2.03      0.00
    6   14   34     -8.00      0.00
    8   14   34     -3.02      0.00
   10   14   34      2.26      0.00
    0   16   34      2.63      0.00
    2   16   34     -2.28      0.00
    4   16   34      0.90      0.00
    6   16   34     -0.22      0.00
    8   16   34     -1.32      0.00
    0   18   34     -4.89      0.00
    2   18   34     -3.16      0.00
    1    1   35     -0.15      0.00
    1    3   35      1.18      0.00
    3    3   35     -1.40      0.00
    1    5   35     -2.11      0.00
    3    5   35      2.24      0.00
    5    5   35     -5.09      0.00
    1    7   35      0.48      0.00
    3    7   35      0.22      0.00
    5    7   35     -1.43      0.00
    7    7   35      4.17      0.00
    1    9   35     -2.28      0.00
    3    9   35      0.58      0.00
    5    9   35      2.69      0.00
    7    9   35      1.46      0.00
    9    9   35     -2.67      0.00
    1   11   35      0.07      0.00
    3   11   35      2.09      0.00
    5   11   35      4.58      0.00
    7   11   35      0.45      0.00
    9   11   35     -0.68      0.00
   11   11   35     -4.97      0.00
    1   13   35      2.25      0.00
    3   13   35     -4.15      0.00
    5   13   35     -4.47      0.00
    7   13   35     -0.06      0.00
    9   13   35     -2.61      0.00
    1   15   35      2.30      0.00
    3   15   35      0.25      0.00
    5   15   35     -0.45      0.00
    0    0   36      1.53      0.00
    0    2   36      1.58      0.00
    2    2   36     -4.84      0.00
    0    4   36     -4.06      0.00
    2    4   36      0.02      0.00
    4    4   36     -3.02      0.00
    0    6   36     -2.99      0.00
    2    6   36      4.02      0.00
    4    6   36      1.41      0.00
    6    6   36     -8.23      0.00
    0    8   36      1.69      0.00
    2    8   36      0.37      0.00
    4    8   36     -2.74      0.00
    6    8   36     -0.48      0.00
    8    8   36     -8.82      0.00
    0   10   36      3.79      0.00
    2   10   36     -2.51      0.00
    4   10   36      6.20      0.00
    6   10   36     -1.61      0.00
    8   10   36      1.39      0.00
    0   12   36     -1.71      0.00
    2   12   36      0.09      0.00
    4   12   36     -0.18      0.00
    6   12   36      1.92      0.00
    1    1   37      5.00      0.00
    1    3   37     -2.81      0.00
    3    3   37     -1.10      0.00
    1    5   37     -1.93      0.00
    3    5   37      5.56      0.00
    5    5   37     -6.91      0.00
    1    7   37      1.34      0.00
    3    7   37      4.03      0.00
    5    7   37     -3.19      0.00
    7    7   37     -3.02      0.00
    1    9   37     -2.29      0.00
    3    9   37     -0.54      0.00
    5    9   37      0.45      0.00
    0    0   38     16.06      0.00
    0    2   38      1.35      0.00
    2    2   38      0.39      0.00
    0    4   38     -5.55      0.00
    2    4   38      0.02      0.00
    4    4   38      6.85      0.00
    0    6   38      0.44      0.00
    2    6   38      6.52      0.00
    1    1    1    220.66      0.00
    0    0    2   -104.76      0.00
    0    2    2    112.78      0.00
    2    2    2   -215.25      0.00
    1    3    3      3.17      0.00
    3    3    3    -23.50      0.00
    0    0    4     36.37      0.00
    0    2    4    -19.33      0.00
    2    2    4    -27.26      0.00
    0    4    4     81.80      0.00
    3    3    5     45.82      0.00
    3    3    7    -45.68      0.00
    0    8    8     41.91      0.00
   21   23   23     -0.96      0.00
   21   21   25      1.77      0.00
   16   24   26     -4.60      0.00
   12   26   26     -1.42      0.00
    7   27   27      3.23      0.00
   18   20   28     -0.96      0.00
   12   24   28      0.65      0.00
    6   26   28     -1.63      0.00
   17   19   29      2.29      0.00
   15   21   29      1.30      0.00
   11   23   29      0.43      0.00
    5   25   29     -6.54      0.00
   14   20   30     -7.50      0.00
    4   24   30     -4.96      0.00
   13   19   31     -3.69      0.00
    1   23   31     -1.38      0.00
    3   23   31      0.84      0.00
   12   18   32     -0.56      0.00
    0   22   32     -0.65      0.00
   11   17   33      4.13      0.00
    7   19   33     -1.90      0.00
   12   14   34     -1.80      0.00
    4   18   34     -2.83      0.00
    7   15   35     -3.39      0.00
   10   10   36     -5.45      0.00
    8   12   36      0.61      0.00
    0   14   36      1.76      0.00
    2   14   36     -0.53      0.00
    4   14   36     -5.42      0.00
    7    9   37     -4.29      0.00
    1   11   37      1.25      0.00
    3   11   37     -0.53      0.00
    4    6   38     -1.69      0.00
    0    8   38     -1.50      0.00
    0    0    0      0.00      0.00
# SQUEEZE RESULTS (Version = 140621)
# Note: Data are Listed for all Voids in the P1 Unit Cell
# i.e. Centre of Gravity, Solvent Accessible Volume,
# Recovered number of Electrons in the Void and
# Details about the Squeezed Material
loop_
  _platon_squeeze_void_nr
  _platon_squeeze_void_average_x
  _platon_squeeze_void_average_y
  _platon_squeeze_void_average_z
  _platon_squeeze_void_volume
  _platon_squeeze_void_count_electrons
  _platon_squeeze_void_content
   1 -0.003 -0.007 -0.004     18017       859 ' '
# Missing Reflections Below sin(th)/lambda = 0.25
loop_
  _platon_missing_refln_index_h
  _platon_missing_refln_index_k
  _platon_missing_refln_index_l
  _platon_missing_refln_theta
    1    1    1     1.188
    0    0    2     1.371
    0    2    2     1.940
    2    2    2     2.376
    1    3    3     2.990
    3    3    3     3.565
    0    0    4     2.743
    0    2    4     3.068
    2    2    4     3.361
    0    4    4     3.881
    3    3    5     4.500
    3    3    7     5.621
    0    8    8     7.780
_platon_squeeze_void_probe_radius                  1.20
_platon_squeeze_details
)
TITL 20210806ghjz8738_F m -3 m     R = 0.05
CELL   29.6983   29.6983   29.6983     90.00     90.00     90.00
SPGR Fm-3m
# Solvent Accessible Volume =     17954
# Electrons Found in S.A.V. =       830
# Note: Atoms in Void are Labelled as Cxxx and Qxxx for all Others
C101 0.500 0.234 0.000 !       1.02 eA-3
Q102 0.047 0.445 0.049 !       0.75 eA-3
Q103 0.033 0.470 0.030 !       0.74 eA-3
)
;
_shelx_fab_checksum              95493
loop_
_platon_squeeze_void_nr
_platon_squeeze_void_average_x
_platon_squeeze_void_average_y
_platon_squeeze_void_average_z
_platon_squeeze_void_volume
_platon_squeeze_void_count_electrons
_platon_squeeze_void_content
1 -0.003 -0.006 -0.003 18607 1614 ' '

_platon_squeeze_void_probe_radius 1.20
_olex2_submission_special_instructions 'No special instructions were received'
loop_
_twin_individual_id
_twin_individual_mass_fraction_refined
1 0.658(3)
2 0.342(3)

