####################################################################### 
# 
# This file contains crystal structure data downloaded from the 
# Cambridge Structural Database (CSD) hosted by the Cambridge 
# Crystallographic Data Centre (CCDC).
# 
# Full information about CCDC data access policies and citation 
# guidelines are available at http://www.ccdc.cam.ac.uk/access/V1 
# 
# Audit and citation data items may have been added by the CCDC. 
# Please retain this information to preserve the provenance of 
# this file and to allow appropriate attribution of the data. 
# 
#######################################################################

data_NO2-UiO66
_audit_block_doi                 10.5517/cc1j5svb
_database_code_depnum_ccdc_archive 'CCDC 1405752'
loop_
_citation_id
_citation_doi
_citation_year
1 10.1002/anie.201505461 2015
_audit_update_record             
;
2015-06-12 deposited with the CCDC.	2023-07-06 downloaded from the CCDC.
;

_audit_creation_method           SHELXL-2014/7
_shelxl_version_number           2014/7
_chemical_name_systematic        ?
_chemical_name_common            NO2-UiO-66
_chemical_melting_point          ?
_chemical_formula_moiety         ?
_chemical_formula_sum            'C38.93 H4 N4.85 O40.82 Zr6'
_chemical_formula_weight         1739.97

loop_
_atom_type_symbol
_atom_type_description
_atom_type_scat_dispersion_real
_atom_type_scat_dispersion_imag
_atom_type_scat_source
C C 0.0040 0.0020 'Calculated using XDISP in WinGX (Farrugia, 1999)'
H H 0.0000 0.0000 'Calculated using XDISP in WinGX (Farrugia, 1999)'
N N 0.0080 0.0040 'Calculated using XDISP in WinGX (Farrugia, 1999)'
O O 0.0130 0.0070 'Calculated using XDISP in WinGX (Farrugia, 1999)'
Zr Zr -1.7860 0.6550 'Calculated using XDISP in WinGX (Farrugia, 1999)'

_space_group_crystal_system      cubic
_space_group_IT_number           225
_space_group_name_H-M_alt        'F m -3 m'
_space_group_name_Hall           '-F 4 2 3'

_shelx_space_group_comment       
;
The symmetry employed for this shelxl refinement is uniquely defined
by the following loop, which should always be used as a source of
symmetry information in preference to the above space-group names.
They are only intended as comments.
;

loop_
_space_group_symop_operation_xyz
'x, y, z'
'-x, -y, z'
'-x, y, -z'
'x, -y, -z'
'z, x, y'
'z, -x, -y'
'-z, -x, y'
'-z, x, -y'
'y, z, x'
'-y, z, -x'
'y, -z, -x'
'-y, -z, x'
'y, x, -z'
'-y, -x, -z'
'y, -x, z'
'-y, x, z'
'x, z, -y'
'-x, z, y'
'-x, -z, -y'
'x, -z, y'
'z, y, -x'
'z, -y, x'
'-z, y, x'
'-z, -y, -x'
'x, y+1/2, z+1/2'
'-x, -y+1/2, z+1/2'
'-x, y+1/2, -z+1/2'
'x, -y+1/2, -z+1/2'
'z, x+1/2, y+1/2'
'z, -x+1/2, -y+1/2'
'-z, -x+1/2, y+1/2'
'-z, x+1/2, -y+1/2'
'y, z+1/2, x+1/2'
'-y, z+1/2, -x+1/2'
'y, -z+1/2, -x+1/2'
'-y, -z+1/2, x+1/2'
'y, x+1/2, -z+1/2'
'-y, -x+1/2, -z+1/2'
'y, -x+1/2, z+1/2'
'-y, x+1/2, z+1/2'
'x, z+1/2, -y+1/2'
'-x, z+1/2, y+1/2'
'-x, -z+1/2, -y+1/2'
'x, -z+1/2, y+1/2'
'z, y+1/2, -x+1/2'
'z, -y+1/2, x+1/2'
'-z, y+1/2, x+1/2'
'-z, -y+1/2, -x+1/2'
'x+1/2, y, z+1/2'
'-x+1/2, -y, z+1/2'
'-x+1/2, y, -z+1/2'
'x+1/2, -y, -z+1/2'
'z+1/2, x, y+1/2'
'z+1/2, -x, -y+1/2'
'-z+1/2, -x, y+1/2'
'-z+1/2, x, -y+1/2'
'y+1/2, z, x+1/2'
'-y+1/2, z, -x+1/2'
'y+1/2, -z, -x+1/2'
'-y+1/2, -z, x+1/2'
'y+1/2, x, -z+1/2'
'-y+1/2, -x, -z+1/2'
'y+1/2, -x, z+1/2'
'-y+1/2, x, z+1/2'
'x+1/2, z, -y+1/2'
'-x+1/2, z, y+1/2'
'-x+1/2, -z, -y+1/2'
'x+1/2, -z, y+1/2'
'z+1/2, y, -x+1/2'
'z+1/2, -y, x+1/2'
'-z+1/2, y, x+1/2'
'-z+1/2, -y, -x+1/2'
'x+1/2, y+1/2, z'
'-x+1/2, -y+1/2, z'
'-x+1/2, y+1/2, -z'
'x+1/2, -y+1/2, -z'
'z+1/2, x+1/2, y'
'z+1/2, -x+1/2, -y'
'-z+1/2, -x+1/2, y'
'-z+1/2, x+1/2, -y'
'y+1/2, z+1/2, x'
'-y+1/2, z+1/2, -x'
'y+1/2, -z+1/2, -x'
'-y+1/2, -z+1/2, x'
'y+1/2, x+1/2, -z'
'-y+1/2, -x+1/2, -z'
'y+1/2, -x+1/2, z'
'-y+1/2, x+1/2, z'
'x+1/2, z+1/2, -y'
'-x+1/2, z+1/2, y'
'-x+1/2, -z+1/2, -y'
'x+1/2, -z+1/2, y'
'z+1/2, y+1/2, -x'
'z+1/2, -y+1/2, x'
'-z+1/2, y+1/2, x'
'-z+1/2, -y+1/2, -x'
'-x, -y, -z'
'x, y, -z'
'x, -y, z'
'-x, y, z'
'-z, -x, -y'
'-z, x, y'
'z, x, -y'
'z, -x, y'
'-y, -z, -x'
'y, -z, x'
'-y, z, x'
'y, z, -x'
'-y, -x, z'
'y, x, z'
'-y, x, -z'
'y, -x, -z'
'-x, -z, y'
'x, -z, -y'
'x, z, y'
'-x, z, -y'
'-z, -y, x'
'-z, y, -x'
'z, -y, -x'
'z, y, x'
'-x, -y+1/2, -z+1/2'
'x, y+1/2, -z+1/2'
'x, -y+1/2, z+1/2'
'-x, y+1/2, z+1/2'
'-z, -x+1/2, -y+1/2'
'-z, x+1/2, y+1/2'
'z, x+1/2, -y+1/2'
'z, -x+1/2, y+1/2'
'-y, -z+1/2, -x+1/2'
'y, -z+1/2, x+1/2'
'-y, z+1/2, x+1/2'
'y, z+1/2, -x+1/2'
'-y, -x+1/2, z+1/2'
'y, x+1/2, z+1/2'
'-y, x+1/2, -z+1/2'
'y, -x+1/2, -z+1/2'
'-x, -z+1/2, y+1/2'
'x, -z+1/2, -y+1/2'
'x, z+1/2, y+1/2'
'-x, z+1/2, -y+1/2'
'-z, -y+1/2, x+1/2'
'-z, y+1/2, -x+1/2'
'z, -y+1/2, -x+1/2'
'z, y+1/2, x+1/2'
'-x+1/2, -y, -z+1/2'
'x+1/2, y, -z+1/2'
'x+1/2, -y, z+1/2'
'-x+1/2, y, z+1/2'
'-z+1/2, -x, -y+1/2'
'-z+1/2, x, y+1/2'
'z+1/2, x, -y+1/2'
'z+1/2, -x, y+1/2'
'-y+1/2, -z, -x+1/2'
'y+1/2, -z, x+1/2'
'-y+1/2, z, x+1/2'
'y+1/2, z, -x+1/2'
'-y+1/2, -x, z+1/2'
'y+1/2, x, z+1/2'
'-y+1/2, x, -z+1/2'
'y+1/2, -x, -z+1/2'
'-x+1/2, -z, y+1/2'
'x+1/2, -z, -y+1/2'
'x+1/2, z, y+1/2'
'-x+1/2, z, -y+1/2'
'-z+1/2, -y, x+1/2'
'-z+1/2, y, -x+1/2'
'z+1/2, -y, -x+1/2'
'z+1/2, y, x+1/2'
'-x+1/2, -y+1/2, -z'
'x+1/2, y+1/2, -z'
'x+1/2, -y+1/2, z'
'-x+1/2, y+1/2, z'
'-z+1/2, -x+1/2, -y'
'-z+1/2, x+1/2, y'
'z+1/2, x+1/2, -y'
'z+1/2, -x+1/2, y'
'-y+1/2, -z+1/2, -x'
'y+1/2, -z+1/2, x'
'-y+1/2, z+1/2, x'
'y+1/2, z+1/2, -x'
'-y+1/2, -x+1/2, z'
'y+1/2, x+1/2, z'
'-y+1/2, x+1/2, -z'
'y+1/2, -x+1/2, -z'
'-x+1/2, -z+1/2, y'
'x+1/2, -z+1/2, -y'
'x+1/2, z+1/2, y'
'-x+1/2, z+1/2, -y'
'-z+1/2, -y+1/2, x'
'-z+1/2, y+1/2, -x'
'z+1/2, -y+1/2, -x'
'z+1/2, y+1/2, x'

_cell_length_a                   20.7964(9)
_cell_length_b                   20.7964(9)
_cell_length_c                   20.7964(9)
_cell_angle_alpha                90
_cell_angle_beta                 90
_cell_angle_gamma                90
_cell_volume                     8994.2(12)
_cell_formula_units_Z            4
_cell_measurement_temperature    100(2)
_cell_measurement_reflns_used    2776
_cell_measurement_theta_min      2.771
_cell_measurement_theta_max      36.295

_exptl_crystal_description       Block
_exptl_crystal_colour            Colorless
_exptl_crystal_density_meas      ?
_exptl_crystal_density_method    ?
_exptl_crystal_density_diffrn    1.285
_exptl_crystal_F_000             3352
_exptl_transmission_factor_min   ?
_exptl_transmission_factor_max   ?
_exptl_crystal_size_max          0.200
_exptl_crystal_size_mid          0.200
_exptl_crystal_size_min          0.130
_exptl_absorpt_coefficient_mu    0.924
_shelx_estimated_absorpt_T_min   0.837
_shelx_estimated_absorpt_T_max   0.889
_exptl_absorpt_correction_type   multi-scan
_exptl_absorpt_correction_T_min  0.752
_exptl_absorpt_correction_T_max  0.889
_exptl_absorpt_process_details   'SADABS-2014/4 - Bruker AXS, Madison WI'
_diffrn_ambient_temperature      100(2)
_diffrn_radiation_wavelength     0.7749
_diffrn_radiation_type           synchrotron
_diffrn_source                   
;
Advanced Light Source, station 11.3.1
;
_diffrn_radiation_monochromator  'silicon 111'
_diffrn_measurement_device_type  'Bruker D8 with PHOTON 100 detector'
_diffrn_measurement_method       '\f and \w shutterless scans'
_diffrn_detector_area_resol_mean 10.42
_diffrn_reflns_number            5113
_diffrn_reflns_av_unetI/netI     0.0284
_diffrn_reflns_av_R_equivalents  0.0267
_diffrn_reflns_limit_h_min       -33
_diffrn_reflns_limit_h_max       24
_diffrn_reflns_limit_k_min       -24
_diffrn_reflns_limit_k_max       30
_diffrn_reflns_limit_l_min       -30
_diffrn_reflns_limit_l_max       25
_diffrn_reflns_theta_min         3.021
_diffrn_reflns_theta_max         40.194
_diffrn_reflns_theta_full        27.706
_diffrn_measured_fraction_theta_max 0.955
_diffrn_measured_fraction_theta_full 0.996
_diffrn_reflns_Laue_measured_fraction_max 0.955
_diffrn_reflns_Laue_measured_fraction_full 0.996
_diffrn_reflns_point_group_measured_fraction_max 0.955
_diffrn_reflns_point_group_measured_fraction_full 0.996
_reflns_number_total             1100
_reflns_number_gt                970
_reflns_threshold_expression     'I > 2\s(I)'
_reflns_Friedel_coverage         0.000
_reflns_Friedel_fraction_max     .
_reflns_Friedel_fraction_full    .

_reflns_special_details          
;
 Reflections were merged by SHELXL according to the crystal
 class for the calculation of statistics and refinement.
 
 _reflns_Friedel_fraction is defined as the number of unique
 Friedel pairs measured divided by the number that would be
 possible theoretically, ignoring centric projections and
 systematic absences.
;

_computing_data_collection       'Bruker APEX2 Bruker-AXS, Madison WI'
_computing_cell_refinement       'SAINT V8.34A Bruker-AXS, Madison WI'
_computing_data_reduction        'SAINT V8.34A Bruker-AXS, Madison WI'
_computing_structure_solution    'SHELXT 2014/4 Bruker-AXS, Madison WI'
_computing_structure_refinement  'SHELXL-2014/7 (Sheldrick, 2013)'
_computing_molecular_graphics    
;
Bruker SHELXTL Bruker-AXS, Madison WI
Diamond - Crystal and Molecular Structure Visualization
Crystal Impact - Dr. H. Putz & Dr. K. Brandenburg GbR, Kreuzherrenstr. 
102, 53227 Bonn, Germany
http://www.crystalimpact.com/diamond
and local programs
;
_computing_publication_material  'Bruker SHELXTL Bruker-AXS, Madison WI'
_refine_special_details          
;
 Refinement of F^2^ against ALL reflections.  The weighted R-factor wR and 
 goodness of fit S are based on F^2^, conventional R-factors R are based 
 on F, with F set to zero for negative F^2^. All non-hydrogen atoms were 
 refined anisotropically. RIGU was applied to C3 and N1 to better approximate
 the ellipsoid of the low occupancy N1.
 H2B was placed geometrically and refined with a riding model. 
 No hydrogen atoms were refined on O1B, O3, O4 or C3 due to the system 
 disorder and low occupancy.
 EADP restraints were placed on the pairs O2A and O2B as well as O1A and O1B
 due to their close proximity.
 All partial occupancies were refined freely before being fixed to their 
 final values.
 The 0 0 2 reflection was omitted from refinement due to being heavily 
 affected by the beamstop.
;
# start Validation Reply Form
_vrf_PLAT213_NO2-UiO66           
;
PROBLEM: Atom O4              has ADP max/min Ratio .....        4.2 prolat
RESPONSE: This is located on the --NO2 functional group on the aromatic ring
which is disordered perpendicular to the mirror plane, and ordered parallel
to it. This is exacerbated on the -NO2 functional group on the 
aromatic ring.
;
_vrf_PLAT250_NO2-UiO66           
;
PROBLEM: Large U3/U1 Ratio for Average U(i,j) Tensor ....        4.3 Note  
RESPONSE: This is similarly related to the disordered aromatic ring and 
the hydrogen-bonded atoms in the pore.
;
_vrf_PLAT601_NO2-UiO66           
;
PROBLEM: Structure Contains Solvent Accessible VOIDS of .        190 Ang3  
RESPONSE: Voids are expected in this porous MOF structure.
;
# end Validation Reply Form
_refine_ls_structure_factor_coef Fsqd
_refine_ls_matrix_type           full
_refine_ls_weighting_scheme      calc
_refine_ls_weighting_details     
'w=1/[\s^2^(Fo^2^)+(0.0730P)^2^+64.2954P] where P=(Fo^2^+2Fc^2^)/3'
_atom_sites_solution_primary     'intrinsic phasing'
_atom_sites_solution_secondary   difmap
_atom_sites_solution_hydrogens   geom
_refine_ls_hydrogen_treatment    constr
_refine_ls_extinction_method     none
_refine_ls_extinction_coef       .
_refine_ls_number_reflns         1100
_refine_ls_number_parameters     47
_refine_ls_number_restraints     3
_refine_ls_R_factor_all          0.0447
_refine_ls_R_factor_gt           0.0379
_refine_ls_wR_factor_ref         0.1446
_refine_ls_wR_factor_gt          0.1403
_refine_ls_goodness_of_fit_ref   1.260
_refine_ls_restrained_S_all      1.259
_refine_ls_shift/su_max          0.000
_refine_ls_shift/su_mean         0.000

loop_
_atom_site_label
_atom_site_type_symbol
_atom_site_fract_x
_atom_site_fract_y
_atom_site_fract_z
_atom_site_U_iso_or_equiv
_atom_site_adp_type
_atom_site_occupancy
_atom_site_site_symmetry_order
_atom_site_calc_flag
_atom_site_refinement_flags_posn
_atom_site_refinement_flags_adp
_atom_site_refinement_flags_occupancy
_atom_site_disorder_assembly
_atom_site_disorder_group
Zr1 Zr 0.11910(2) 0.0000 0.0000 0.00802(16) Uani 1 8 d S T P . .
O1A O 0.17092(15) 0.09381(15) 0.0000 0.0201(5) Uani 0.81 2 d S T P . 1
C1 C 0.15129(16) 0.15129(16) 0.0000 0.0183(9) Uani 0.81 4 d S T P . 1
C2 C 0.20247(17) 0.20247(17) 0.0000 0.0238(11) Uani 0.81 4 d S T P . 1
C3 C 0.2677(2) 0.1851(2) 0.0000 0.0340(11) Uani 0.81 2 d S TU P . 1
N1 N 0.2938(9) 0.1191(8) 0.0000 0.043(6) Uani 0.2025 2 d S TU P . 1
O4 O 0.3066(9) 0.0928(8) 0.0509(12) 0.031(5) Uani 0.1013 1 d . . P . 1
O1B O 0.1921(7) 0.0763(7) 0.0000 0.0201(5) Uani 0.19 2 d S T P . 2
O2A O 0.05067(19) 0.05067(19) 0.05067(19) 0.0074(8) Uani 0.5 6 d S T P . 3
O2B O 0.06701(18) 0.06701(18) 0.06701(18) 0.0074(8) Uani 0.5 6 d S T P . 4
H2B H 0.0943 0.0943 0.0943 0.009 Uiso 0.5 6 d R U P . 4
O3 O 0.14479(18) 0.14479(18) 0.14479(18) 0.090(6) Uani 0.5 6 d R T P . .

loop_
_atom_site_aniso_label
_atom_site_aniso_U_11
_atom_site_aniso_U_22
_atom_site_aniso_U_33
_atom_site_aniso_U_23
_atom_site_aniso_U_13
_atom_site_aniso_U_12
Zr1 0.0052(2) 0.00943(18) 0.00943(18) 0.000 0.000 0.000
O1A 0.0125(14) 0.0134(14) 0.0344(15) 0.000 0.000 -0.0060(9)
C1 0.0134(13) 0.0134(13) 0.028(3) 0.000 0.000 -0.0083(15)
C2 0.0154(15) 0.0154(15) 0.041(3) 0.000 0.000 -0.0116(17)
C3 0.020(2) 0.0170(18) 0.065(3) 0.000 0.000 -0.0088(14)
N1 0.019(7) 0.020(5) 0.091(17) 0.000 0.000 -0.015(4)
O4 0.023(9) 0.007(7) 0.061(14) 0.012(7) -0.023(8) -0.006(5)
O1B 0.0125(14) 0.0134(14) 0.0344(15) 0.000 0.000 -0.0060(9)
O2A 0.0074(8) 0.0074(8) 0.0074(8) -0.0011(7) -0.0011(7) -0.0011(7)
O2B 0.0074(8) 0.0074(8) 0.0074(8) -0.0011(7) -0.0011(7) -0.0011(7)
O3 0.090(6) 0.090(6) 0.090(6) -0.009(7) -0.009(7) -0.009(7)

_geom_special_details            
;
 All esds (except the esd in the dihedral angle between two l.s. planes)
 are estimated using the full covariance matrix.  The cell esds are taken
 into account individually in the estimation of esds in distances, angles
 and torsion angles; correlations between esds in cell parameters are only
 used when they are defined by crystal symmetry.  An approximate (isotropic)
 treatment of cell esds is used for estimating esds involving l.s. planes.
;

loop_
_geom_bond_atom_site_label_1
_geom_bond_atom_site_label_2
_geom_bond_distance
_geom_bond_site_symmetry_2
_geom_bond_publ_flag
Zr1 O2A 2.0605(13) 4 ?
Zr1 O2A 2.0605(13) 99 ?
Zr1 O2A 2.0605(13) 98 ?
Zr1 O2A 2.0605(13) . ?
Zr1 O1B 2.195(14) 115 ?
Zr1 O1B 2.195(14) 17 ?
Zr1 O1B 2.195(14) 99 ?
Zr1 O1B 2.195(14) . ?
Zr1 O1A 2.229(3) 115 ?
Zr1 O1A 2.229(3) 99 ?
Zr1 O1A 2.229(3) 17 ?
Zr1 O1A 2.229(3) . ?
O1A C1 1.263(4) . ?
C1 O1A 1.263(4) 13 ?
C1 C2 1.505(7) . ?
C2 C3 1.404(6) . ?
C2 C3 1.404(6) 13 ?
C3 C3 1.390(9) 181 ?
C3 N1 1.47(2) . ?
N1 O4 1.22(2) . ?
N1 O4 1.22(2) 98 ?
O4 O4 1.23(4) 115 ?
O2A Zr1 2.0605(13) 9 ?
O2A Zr1 2.0605(13) 5 ?
O2B Zr1 2.249(3) 5 ?
O2B Zr1 2.249(3) 9 ?
O2B H2B 0.9837 . ?

loop_
_geom_angle_atom_site_label_1
_geom_angle_atom_site_label_2
_geom_angle_atom_site_label_3
_geom_angle
_geom_angle_site_symmetry_1
_geom_angle_site_symmetry_3
_geom_angle_publ_flag
O2A Zr1 O2A 61.5(2) 4 99 ?
O2A Zr1 O2A 61.5(2) 4 98 ?
O2A Zr1 O2A 92.6(4) 99 98 ?
O2A Zr1 O2A 92.6(4) 4 . ?
O2A Zr1 O2A 61.5(2) 99 . ?
O2A Zr1 O2A 61.5(2) 98 . ?
O1B Zr1 O1B 92.5(8) 115 17 ?
O1B Zr1 O1B 61.4(4) 115 99 ?
O1B Zr1 O1B 61.4(4) 17 99 ?
O1B Zr1 O1B 61.4(4) 115 . ?
O1B Zr1 O1B 61.4(4) 17 . ?
O1B Zr1 O1B 92.5(8) 99 . ?
O1A Zr1 O1A 76.48(8) 115 99 ?
O1A Zr1 O1A 122.17(17) 115 17 ?
O1A Zr1 O1A 76.48(8) 99 17 ?
O1A Zr1 O1A 76.48(8) 115 . ?
O1A Zr1 O1A 122.17(17) 99 . ?
O1A Zr1 O1A 76.48(8) 17 . ?
C1 O1A Zr1 132.2(3) . . ?
O1A C1 O1A 127.7(5) . 13 ?
O1A C1 C2 116.1(2) . . ?
O1A C1 C2 116.1(2) 13 . ?
C3 C2 C3 119.9(5) . 13 ?
C3 C2 C1 120.1(3) . . ?
C3 C2 C1 120.1(3) 13 . ?
C3 C3 C2 120.1(3) 181 . ?
C3 C3 N1 113.4(7) 181 . ?
C2 C3 N1 126.5(8) . . ?
O4 N1 O4 120(3) . 98 ?
O4 N1 C3 119.8(13) . . ?
O4 N1 C3 119.8(13) 98 . ?
N1 O4 O4 158.4(10) . 115 ?
Zr1 O2A Zr1 116.41(12) 9 5 ?
Zr1 O2A Zr1 116.41(12) 9 . ?
Zr1 O2A Zr1 116.41(12) 5 . ?
Zr1 O2B Zr1 102.30(18) 5 9 ?
Zr1 O2B Zr1 102.30(18) 5 . ?
Zr1 O2B Zr1 102.30(18) 9 . ?
Zr1 O2B H2B 115.9 5 . ?
Zr1 O2B H2B 115.9 9 . ?
Zr1 O2B H2B 115.9 . . ?

_refine_diff_density_max         1.092
_refine_diff_density_min         -1.029
_refine_diff_density_rms         0.142

_shelx_res_file                  
;

    shelx.res created by SHELXL-2014/7


TITL NO2_UiO_a.res in Fm-3m
REM Old TITL NO2_UiO in Fm-3m

REM SHELXT solution in Fm-3m
REM R1 0.150,  Rweak 0.009,  Alpha 0.024,  Orientation as input
REM Formula found by SHELXT:  C24 O16 Zr3

CELL  0.77490  20.7964  20.7964  20.7964   90.000   90.000   90.000
ZERR  4   0.0009   0.0009   0.0009    0.000    0.000    0.000
LATT   4
SYMM  - X, - Y,   Z
SYMM  - X,   Y, - Z
SYMM    X, - Y, - Z
SYMM    Z,   X,   Y
SYMM    Z, - X, - Y
SYMM  - Z, - X,   Y
SYMM  - Z,   X, - Y
SYMM    Y,   Z,   X
SYMM  - Y,   Z, - X
SYMM    Y, - Z, - X
SYMM  - Y, - Z,   X
SYMM    Y,   X, - Z
SYMM  - Y, - X, - Z
SYMM    Y, - X,   Z
SYMM  - Y,   X,   Z
SYMM    X,   Z, - Y
SYMM  - X,   Z,   Y
SYMM  - X, - Z, - Y
SYMM    X, - Z,   Y
SYMM    Z,   Y, - X
SYMM    Z, - Y,   X
SYMM  - Z,   Y,   X
SYMM  - Z, - Y, - X
SFAC  C    H    N    O    ZR
DISP C  0.004   0.002  13.60
DISP N 0.008  0.004  23.92
DISP O  0.013   0.007  40.17
DISP Zr -1.786  0.655  3082.63
UNIT  155.72 16  19.4 163.28   24
MERG   2
OMIT 0 0 2
EADP O2a O2b
EADP O1a O1B
RIGU C3 N1
FMAP   2
PLAN   20
BOND   $H
LIST   4
SIZE 0.200 0.200 0.13
L.S.  20
ACTA
TEMP  -173.00
WGHT    0.073000   64.295387
FVAR       0.10493
ZR1   5    0.119097    0.000000    0.000000    10.12500    0.00520    0.00943 =
         0.00943    0.00000    0.00000    0.00000
PART    1
O1A   4    0.170915    0.093813    0.000000    10.40500    0.01250    0.01343 =
         0.03443    0.00000    0.00000   -0.00603
C1    1    0.151287    0.151287    0.000000    10.20250    0.01338    0.01338 =
         0.02811    0.00000    0.00000   -0.00831
C2    1    0.202471    0.202471    0.000000    10.20250    0.01539    0.01539 =
         0.04076    0.00000    0.00000   -0.01160
C3    1    0.267691    0.185057    0.000000    10.40500    0.02010    0.01697 =
         0.06498    0.00000    0.00000   -0.00881
N1    3    0.293787    0.119144    0.000000    10.10125    0.01865    0.02027 =
         0.09080    0.00000    0.00000   -0.01501
O4    4    0.306640    0.092815    0.050858    10.10125    0.02325    0.00694 =
         0.06136    0.01219   -0.02317   -0.00570
PART    2
O1B   4    0.192062    0.076251    0.000000    10.09500    0.01250    0.01343 =
         0.03443    0.00000    0.00000   -0.00603
PART    3
O2A   4    0.050669    0.050669    0.050669    10.08333    0.00744    0.00744 =
         0.00744   -0.00108   -0.00108   -0.00108
PART    4
O2B   4    0.067008    0.067008    0.067008    10.08333    0.00744    0.00744 =
         0.00744   -0.00108   -0.00108   -0.00108
AFIX   3
H2B   2    0.094317    0.094317    0.094317    10.08333   -1.20000
PART    0
O3    4    0.144790    0.144790    0.144790    10.08333    0.09014    0.09014 =
         0.09014   -0.00937   -0.00937   -0.00937
AFIX   0
HKLF    4

REM  NO2_UiO_a.res in Fm-3m
REM R1 =  0.0379 for     970 Fo > 4sig(Fo)  and  0.0447 for all    1100 data
REM     47 parameters refined using      3 restraints

END

WGHT      0.0730     64.3088

REM Highest difference peak  1.092,  deepest hole -1.029,  1-sigma level  0.142
Q1    1   0.1953  0.3047  0.1953  10.16667  0.05    1.09
Q2    1   0.1923  0.2215  0.1923  10.50000  0.05    0.90
Q3    1   0.1987  0.1501  0.1501  10.50000  0.05    0.82
Q4    1   0.0758  0.0758  0.0458  10.50000  0.05    0.65
Q5    1   0.4824  0.0000  0.0000  10.12500  0.05    0.59
Q6    1   0.1869  0.1869  0.2577  10.50000  0.05    0.51
Q7    1   0.2726  0.1492  0.0000  10.50000  0.05    0.50
Q8    1   0.4482  0.0000  0.0000  10.12500  0.05    0.50
Q9    1   0.2003  0.0543  0.0000  10.50000  0.05    0.50
Q10   1   0.4632  0.0368  0.0368  10.16667  0.05    0.45
Q11   1   0.1690  0.0802  0.0000  10.50000  0.05    0.44
Q12   1   0.1955  0.1067  0.0000  10.50000  0.05    0.43
Q13   1   0.2047  0.1182 -0.0403  11.00000  0.05    0.42
Q14   1   0.3023  0.1056  0.0675  11.00000  0.05    0.42
Q15   1   0.2053  0.1139  0.0483  11.00000  0.05    0.41
Q16   1   0.1633  0.1089  0.0218  11.00000  0.05    0.37
Q17   1   0.1092  0.1739  0.1226  11.00000  0.05    0.35
Q18   1   0.2711  0.1400 -0.0179  11.00000  0.05    0.35
Q19   1   0.3057  0.0642  0.0642  10.50000  0.05    0.32
Q20   1   0.1795  0.1795  0.0000  10.25000  0.05    0.32
;
_shelx_res_checksum              96109

_shelx_hkl_file                  
;
   0   2   0    0.50    2.50
  -2   0  -2  677.13   25.10
   2   0   2  694.63   25.10
  -2  -2  -2  873.51   39.10
  -2  -2   2  871.71   38.40
  -2   2  -2  824.32   38.90
   2  -2  -2  853.01   33.00
   2  -2   2  869.81   39.20
   2   2  -2  880.71   38.20
  -3   1  -1  303.67   10.90
  -3   1   1  292.97   10.70
  -1  -1  -3  274.17   10.70
  -1   1  -3  287.37   10.80
   1   1   3  293.87   10.80
   3  -1   1  292.47   10.80
   3   1  -1  288.17   10.80
  -3  -1  -3  519.45   18.90
  -3   1  -3  484.95   18.90
   3  -1   3  515.05   18.90
   3   1   3  518.15   18.90
  -3  -3  -3 1212.58   55.49
  -3  -3   3 1243.88   54.89
  -3   3  -3 1197.78   56.09
   3  -3  -3 1216.88   46.70
   3   3  -3 1217.88   54.29
   3   3   3 1163.28   55.29
  -4   0   0 3348.86  129.39
   0  -4   0 3482.15  130.29
   0   0  -4 3510.15  127.49
   0   0   4 3424.36  127.19
   0   4   0 2834.62  131.89
   4   0   0 3497.35  129.69
  -4   0  -2  588.14   21.90
  -4   0   2  588.54   21.70
   4   0  -2  601.44   21.60
   4   0   2  601.94   21.90
  -2   0  -4  590.64   21.80
   2   0   4  611.84   21.90
   4   2   0  573.24   21.90
  -2   2  -4   50.89    2.40
   2   2   4   48.50    2.30
   4   2   2   49.99    2.40
  -4   0  -4 1028.50   38.40
   4   0   4 1058.79   38.40
  -4  -2  -4 1834.72   69.69
  -4   2  -4 1846.42   69.69
   4  -2   4 1990.40   69.69
   4   2   4 1995.50   69.69
  -4  -4  -4 3918.01  161.98
  -4  -4   4 4165.88  160.78
  -4   4  -4 3986.80  162.38
  -4   4   4 3965.40  148.99
   4  -4  -4 4045.70  148.99
   4   4  -4 4229.18  160.28
   4   4   4 3943.31  161.38
  -5  -1  -1  298.47   11.40
  -5  -1   1  300.97   11.40
  -5   1  -1  299.07   11.40
  -5   1   1  302.17   11.20
  -1  -1  -5  295.07   11.20
  -1   1  -5  295.27   11.30
  -1   1   5  298.87   11.00
   1  -1   5  304.67   11.30
   1   1  -5  299.67   11.10
   1   1   5  297.47   11.20
   5  -1  -1  301.77   11.20
   5  -1   1  312.67   11.40
   5   1  -1  295.87   11.30
   5   1   1  295.87   11.40
  -5  -1  -3  608.44   23.40
  -5   1   3  616.34   22.90
   3   1   5  628.34   23.30
  -3   1  -5  641.74   23.40
   5  -1   3  662.83   23.40
   5   1  -3  619.84   23.00
  -3  -1  -5  640.24   23.30
   5   1   3  623.74   23.40
   3  -1   5  628.34   23.30
  -5   3  -3 1227.48   44.80
  -3   3  -5 1207.68   44.80
   3   3   5 1235.58   44.70
   5   3   3 1220.08   44.80
  -5  -1  -5  558.54   21.80
  -5   1  -5  584.54   21.90
  -5   1   5  567.94   21.10
   5  -1   5  614.44   21.80
   5   1  -5  580.14   21.20
   5   1   5  586.44   21.80
  -5   3  -5 1963.80   72.89
   5   3   5 2034.80   72.89
  -5   5  -5 8391.36  293.47
  -5   5   5 7086.19  273.67
   5  -5  -5 7242.18  274.37
   5   5  -5 7310.97  287.37
  -6   0   0 9362.96  345.77
   0  -6   0 9064.99  346.17
   0   0  -6 8962.40  342.07
   0   0   6 9271.17  341.97
   0   6   0 9999.00  346.77
   6   0   0 8761.52  344.77
  -6   0   2   16.00    1.20
   0   2  -6   15.20    1.20
   0   2   6   17.00    1.10
   6   0  -2   18.20    1.10
   6   0   2   16.00    1.30
   2   0   6   18.40    1.30
   6   2   0   16.10    1.30
  -2   0   6   15.80    1.10
  -6   2   0   14.50    1.30
  -2   0  -6   16.10    1.30
   2   2   6  375.76   14.30
   6   2   2  386.26   14.50
   6   2  -2  369.06   14.30
   6  -2   2  376.96   14.40
  -6   2  -2  358.96   14.40
  -6   2   2  375.26   14.10
  -2   2  -6  375.66   14.40
   6   0   4  257.17   10.30
  -6   0  -4  254.07   10.30
  -6   0   4  258.77    9.90
   6   0  -4  280.17    9.80
   4   0   6  261.17   10.30
  -4   0  -6  256.17   10.30
  -6   2   4  598.84   21.60
   6  -2   4  623.64   22.30
   6   2  -4  557.34   21.90
   4   2   6  581.74   22.20
  -6   4  -2  600.94   22.20
  -6  -2  -4  587.44   22.40
   6   4   2  585.24   22.30
  -4   2  -6  591.04   22.30
  -4  -2  -6  583.94   22.20
   4  -2   6  605.34   22.30
  -6   2  -4  608.94   22.40
   6   2   4  591.04   22.30
  -6   4  -4 2390.36   84.69
  -4   4  -6 2246.88   84.59
   4   4   6 2322.37   84.49
   6   4   4 2333.67   84.59
  -6   0  -6  173.08    6.90
   6   0   6  148.39    6.70
  -6  -2  -6  229.38    9.40
  -6   2  -6  234.58    9.40
   6  -2   6  228.48    9.30
   6   2  -6  225.28    8.70
   6   2   6  215.68    9.30
  -6   4  -6 3114.89  110.69
   6   4   6 2967.60  110.49
  -6   6  -6 3741.93  137.49
   6   6   6 3826.32  137.49
  -7  -1  -1 2798.32  103.29
  -7  -1   1 2820.92  103.19
  -7   1  -1 2868.61  103.19
  -1   1  -7 2787.92  102.99
   1  -1   7 2859.01  103.09
   7  -1  -1 2840.42  102.89
   7  -1   1 2906.61  103.09
   7   1  -1 2884.41  102.99
   7   1   1 2845.22  103.19
  -7  -1  -3   33.10    2.10
   3   1   7   38.30    2.00
  -7   1   3   33.40    1.70
   7   1  -3   31.40    1.70
  -3   1  -7   32.40    2.00
   7  -1   3   31.70    2.00
   7   3   1   33.60    2.10
  -7   3  -1   31.70    2.00
   1   3   7   34.30    1.80
  -7  -1   3   29.30    1.80
   7   3  -1   31.80    2.00
  -1   3  -7   30.50    2.00
   3  -1   7   33.30    2.00
  -3   1   7   31.90    1.40
   3   1  -7   31.80    1.40
  -7   3   1   33.00    1.80
  -3  -1  -7   34.40    2.00
   7   1   3   32.90    2.10
  -7   3   3  147.59    5.60
   7   3  -3  143.99    5.90
   7   3   3  141.29    6.10
   3   3   7  141.49    5.90
  -7   3  -3  140.79    6.10
  -3   3  -7  140.39    6.10
   7   1  -5   85.79    3.30
  -7   1   5   82.19    3.40
   7  -1   5   81.99    4.00
  -5   1  -7   79.19    4.00
  -7  -1  -5   79.59    4.00
   5   1   7   85.89    4.00
  -7   1  -5   81.99    4.00
   5  -1   7   82.69    4.00
  -5  -1  -7   80.89    3.90
   7   5   3  415.86   16.10
   7   3  -5  416.06   15.60
   5   3   7  422.36   15.90
  -5   3  -7  402.66   16.00
  -7   5  -3  412.66   16.00
  -7   3  -5  405.36   16.10
   7   3   5  423.36   16.00
  -7   5  -5 2628.54   99.29
  -5   5  -7 2742.23   99.29
   5   5   7 2725.33   99.19
   7   5   5 2803.32   99.29
  -7  -1  -7 3379.06  126.99
  -7   1  -7 3478.45  127.09
   7  -1   7 3568.24  126.99
   7   1   7 3558.54  126.99
  -7   3  -7  320.77   13.20
   7   3  -7  334.77   12.40
   7   3   7  327.67   13.00
  -7   5  -7   49.80    3.20
   7   5   7   49.80    3.10
  -7   7  -7 1638.94   61.79
   7   7   7 1708.43   61.79
  -8   0   0 3130.49  114.99
   8   0   0 3203.28  114.89
  -8   0  -2  167.88    7.30
  -8   0   2  170.98    7.00
   0   2  -8  176.68    7.00
   0   2   8  181.78    6.80
   8   0  -2  181.18    6.90
   8   0   2  185.78    7.20
   2   0   8  173.58    7.10
   8   2   0  176.48    7.10
  -2   0  -8  170.88    7.00
  -2   0   8  173.08    6.70
  -8  -2   0  165.18    7.20
  -8   2   0  163.18    7.10
  -2   2  -8  333.87   12.90
   8   2  -2  338.27   12.70
   8  -2   2  326.87   12.80
   8   2   2  352.86   13.00
   2   2  -8  328.77   12.50
   2   2   8  326.97   12.70
  -8  -2  -2  340.47   13.20
  -8   2  -2  319.77   13.00
  -8   2   2  326.47   12.60
  -2   2   8  335.77   12.30
   4   0   8   -0.90    0.60
  -8   0  -4   -0.90    0.70
  -8   0   4   -0.60    0.50
   8   0  -4   -0.40    0.40
  -8   4   0    0.40    0.70
  -4   0  -8   -0.80    0.60
   8   4   0    1.30    0.80
   8  -2   4   25.10    1.90
  -8   4  -2   22.70    1.80
  -8   2   4   25.40    1.50
  -4   2  -8   22.60    1.90
   4   2   8   22.40    1.80
   8   2  -4   24.90    1.60
   8   4   2   23.40    2.00
  -8  -2  -4   29.60    2.10
   8   2   4   27.20    2.00
   2   4   8   20.80    1.70
   4   2  -8   23.60    1.30
  -8   4   2   21.80    1.50
  -4  -2  -8   25.90    1.80
  -2   4  -8   25.10    1.90
  -8   2  -4   24.20    1.90
   8   4  -2   27.70    1.90
   4  -2   8   22.90    1.90
  -4   4  -8  345.57   13.80
   8   4  -4  345.87   13.50
  -8   4  -4  353.16   13.90
   4   4   8  348.77   13.70
   8   4   4  344.97   13.80
  -6   0  -8 3313.67  123.89
   6   0   8 3418.86  123.89
  -8   0  -6 3484.95  125.09
   8   0   6 3426.56  123.89
   6   2   8 1728.73   63.09
  -8   2   6 1680.03   62.29
   8  -2   6 1737.43   63.19
  -8  -2  -6 1757.62   63.39
   8   2  -6 1588.44   62.49
  -6   2  -8 1737.03   63.29
  -6  -2  -8 1702.73   63.19
   6   2  -8 1721.93   62.29
   6  -2   8 1800.72   63.19
   8   2   6 1747.13   63.19
  -8   2  -6 1738.33   63.29
  -8   6  -4    1.60    0.80
   6   4   8   -0.30    0.80
   8   6   4    0.70    0.90
  -6   4  -8    1.00    0.90
   8   4   6    0.40    0.90
  -8   4  -6    1.20    0.80
  -4   6  -8    0.20    0.70
  -8   6  -6  117.39    5.80
  -6   6  -8  114.79    5.80
   6   6   8  126.29    5.80
   8   6   6  119.99    5.80
  -8   0  -8 3353.96  123.19
   8   0   8 3408.26  123.19
  -8  -2  -8 2541.55   92.59
  -8   2  -8 2526.45   92.59
  -8   2   8 2440.66   91.39
   8  -2   8 2559.24   92.49
   8   2   8 2587.04   92.49
  -8   4  -8  232.98   10.20
   8   4   8  240.58   10.00
  -8   6  -8 1357.76   50.99
  -8   8  -6 1338.37   50.89
  -8   8  -8 2010.30   74.29
  -9  -1  -1 1135.79   41.80
  -9  -1   1 1132.69   41.70
  -9   1  -1 1152.48   41.70
  -9   1   1 1128.59   41.50
  -1  -1  -9 1097.59   41.20
  -1   1  -9 1122.09   41.40
  -1   1   9 1119.59   41.20
   1  -1   9 1143.19   41.50
   1   1  -9 1124.79   41.20
   1   1   9 1117.59   41.40
   9  -1  -1 1124.59   41.30
   9  -1   1 1153.38   41.50
   9   1  -1 1112.09   41.40
   9   1   1 1139.09   41.60
  -9  -1  -3   20.40    1.90
  -1   3   9   20.60    1.30
  -9   1   3   19.90    1.50
  -9   3  -1   16.10    1.70
   9   1  -3   19.50    1.40
   1   3  -9   19.70    1.50
   3   1   9   22.40    1.80
   9   3   1   16.60    1.70
   9  -1   3   19.50    1.80
  -3   1  -9   22.20    1.70
   9   1   3   19.20    1.80
  -9   1  -3   19.70    1.80
   1   3   9   21.60    1.50
  -1   3  -9   19.40    1.60
   9   3  -1   19.90    1.70
  -9  -1   3   17.90    1.60
   3  -1   9   19.50    1.70
  -3  -1  -9   16.00    1.50
  -3   1   9   20.70    1.20
  -9   3   1   18.50    1.60
   3   1  -9   20.20    1.00
  -9   3   3    4.80    0.80
   9   3  -3    4.50    0.90
  -3   3  -9    5.70    1.00
   3   3  -9    4.40    0.70
  -9   3  -3    5.90    1.10
   3   3   9    4.40    0.90
   9   3   3    7.10    1.20
   5   1   9  595.54   22.50
   9   5   1  589.54   22.60
   9  -1   5  593.44   22.60
   9   1  -5  589.04   21.80
  -9   1   5  580.24   22.00
  -9   5  -1  596.64   22.50
  -9  -1  -5  604.44   22.80
  -5   1  -9  594.04   22.50
   5  -1   9  612.34   22.60
  -1   5  -9  588.94   22.40
  -9   5   1  588.84   22.30
  -9   1  -5  598.94   22.70
   9   1   5  595.24   22.60
   9   5  -1  578.54   22.50
  -5  -1  -9  584.04   22.50
  -9   5  -3   13.40    1.70
  -9   3   5   15.80    1.10
  -5   3  -9   12.50    1.70
   9   5   3   17.80    2.00
   9   3  -5   14.70    1.40
  -9  -3  -5   13.40    1.70
   5   3   9   11.70    1.50
   9   5  -3   13.10    1.60
   9   3   5   18.20    2.00
  -3   5  -9   15.90    1.80
   3   5   9   15.60    1.70
  -9   3  -5   14.90    1.80
  -5   5  -9  190.48    8.30
  -9   5  -5  194.48    8.30
   9   5   5  182.38    8.20
   7   1   9 2487.05   92.69
   9  -1   7 2603.44   92.79
  -7   1  -9 2524.15   92.89
  -9   1   7 2488.25   91.99
  -9  -1  -7 2540.95   92.99
   9   1   7 2573.44   92.79
  -9   1  -7 2572.94   92.99
  -7  -1  -9 2527.85   92.79
   7  -1   9 2548.05   92.79
  -9   3   7  679.63   25.30
  -9  -3  -7  670.33   26.40
   9   7   3  704.03   26.40
  -9   7  -3  685.13   26.20
  -7   3  -9  685.23   26.40
   9   3  -7  685.83   25.50
   7   3   9  690.43   26.20
   7   3  -9  719.43   25.40
   9   3   7  689.53   27.60
  -9   3  -7  695.53   26.50
   7   5   9  109.79    5.50
  -9   7  -5  116.99    5.60
  -9   5  -7  103.69    6.00
   9   5   7  101.69    5.50
  -9   7  -7 1305.27   47.90
  -7   7  -9 1253.97   47.80
  -9   1  -9 2032.00   75.49
  -9  -3  -9  776.32   32.60
  -9   3  -9  860.91   32.10
  -9   3   9  850.11   30.60
   9   3  -9  875.21   30.80
  -9   5  -9  721.13   27.90
  -9   7  -9 1218.18   46.30
  -9   9  -7 1248.88   46.30
  -7   9  -9 1221.28   46.20
  -9   9  -9 1245.98   47.10
 -10   0   0 7832.12  302.37
   0 -10   0 7559.24  303.47
   0   0 -10 8083.59  297.87
   0   0  10 7395.66  294.87
   0  10   0 7932.61  303.17
  10   0   0 7932.61  303.27
 -10   0  -2  247.38   10.50
 -10   0   2  256.37   10.20
   0   2 -10  252.07   10.00
   0   2  10  270.27   10.00
  10   0  -2  265.67   10.00
  10   0   2  265.67   10.30
   2   0  10  253.17   10.20
  10   2   0  251.67   10.20
  -2   0  10  262.77    9.90
  -2   0 -10  249.58   10.10
 -10   2   0  254.77   10.30
 -10  -2   0  240.08   10.40
 -10   2   2   17.50    1.60
  -2   2 -10   19.50    1.70
  -2   2  10   18.20    1.30
 -10  -2  -2   16.00    1.90
 -10   2  -2   15.90    1.90
  10  -2   2   17.90    1.80
  10   2  -2   18.50    1.70
   2   2 -10   15.60    1.30
   2   2  10   17.90    1.70
  10   2   2   17.00    1.80
  10   4   0  227.68    9.70
 -10   4   0  240.28    9.60
  -4   0 -10  231.28    9.60
   4   0  10  239.78    9.70
 -10   0   4  236.88    9.40
 -10   0  -4  228.28    9.90
  10   0   4  236.58    9.80
   0   4 -10  236.78    9.50
   0   4  10  245.98    9.30
 -10   4  -2  359.66   14.00
  -2   4  10  346.97   13.20
  10   4   2  346.87   14.00
 -10  -2  -4  362.06   14.20
 -10   2   4  341.37   13.40
  -4   2 -10  348.47   13.90
  10   2  -4  357.46   13.40
   2   4 -10  345.77   13.50
  10  -2   4  362.66   13.90
  10   2   4  367.46   14.00
  -2   4 -10  345.47   13.80
  -4   2  10  349.27   13.00
  10   4  -2  354.36   13.80
   2   4  10  363.76   13.70
   4  -2  10  353.86   13.90
   4   2 -10  347.17   13.10
 -10   2  -4  353.26   14.10
  -4  -2 -10  328.67   13.60
 -10   4   2  357.86   13.60
  10   4   4  661.63   25.80
  10   4  -4  674.93   25.50
  -4   4 -10  703.13   25.90
 -10   4   4  686.83   25.20
 -10   4  -4  671.83   25.90
  10   0   6 1305.77   48.40
  10   6   0 1355.66   48.40
 -10   0  -6 1301.27   48.50
 -10   6   0 1296.07   48.10
  -6   0 -10 1269.47   48.30
   6   0  10 1300.37   48.30
  -6   2 -10   42.60    3.00
  10   2  -6   46.80    2.30
 -10  -2  -6   45.60    3.20
  10  -2   6   47.20    3.10
   6   2  10   36.70    2.90
 -10   2   6   45.50    2.30
 -10   6  -2   42.00    2.90
  10   2   6   43.10    3.10
  -2   6 -10   42.60    2.90
   6  -2  10   45.50    3.20
 -10   2  -6   44.70    3.10
  10   6  -2   42.80    3.20
  -6  -2 -10   45.70    3.00
   2   6  10   42.90    2.80
   6   4  10  152.88    7.50
  -6   4 -10  152.68    7.10
  10   4  -6  156.48    6.40
 -10   6  -4  151.38    7.00
 -10   4   6  157.98    6.10
 -10   4  -6  156.28    7.20
  10   4   6  136.19    6.90
  -4   6 -10  154.28    7.00
  10   6  -4  154.08    6.80
   6   6  10  140.49    6.60
  -6   6 -10  141.19    6.80
 -10   0  -8 1883.31   70.09
  -8   2 -10  699.33   29.70
 -10   2   8  802.92   28.10
 -10  -2  -8  785.32   29.40
  -8  -2 -10  716.23   29.70
 -10   2  -8  808.92   29.30
 -10   4   8   36.20    1.80
  -8   4 -10   32.40    3.00
 -10   8  -4   37.10    3.00
  10   4  -8   35.60    2.20
   8   4 -10   37.80    2.10
 -10   4  -8   39.50    3.30
  -8   6 -10  381.36   15.70
 -10   8  -6  389.86   15.80
  -6   8 -10  385.56   15.70
 -10   6  -8  379.26   15.80
 -10   8  -8  795.22   31.00
  -8   8 -10  813.22   31.10
 -10   0 -10 2419.06   88.99
 -10  -2 -10  278.47   12.10
 -10   2 -10  286.27   12.20
 -10   4 -10   14.40    2.10
 -10   4  10   17.50    1.10
 -10   6 -10   76.59    5.00
 -10  10  -6   81.79    4.90
  10   6 -10   79.19    4.00
 -10   8 -10  386.26   16.10
 -10  10  -8  375.56   16.00
  -8  10 -10  385.66   16.10
 -10  10 -10  196.08    9.50
 -11  -1  -1 1209.78   44.40
 -11  -1   1 1195.78   44.20
 -11   1  -1 1177.68   44.20
 -11   1   1 1168.58   44.10
  -1   1 -11 1165.88   43.80
  -1   1  11 1198.58   43.70
   1  -1  11 1177.58   44.00
   1   1 -11 1176.88   43.50
   1   1  11 1181.68   43.90
  11  -1  -1 1226.38   43.80
  11  -1   1 1226.38   44.00
  11   1  -1 1204.58   43.90
  11   1   1 1210.68   44.10
 -11  -1  -3  218.08    9.80
  11   1  -3  237.88    9.20
 -11   1   3  231.28    9.40
  11  -1   3  231.68    9.50
  -1   3  11  233.38    9.00
   1   3 -11  221.98    9.20
  -3   1 -11  224.78    9.40
  11   3   1  234.18    9.60
 -11   3  -1  228.78    9.60
  11   1   3  235.18    9.60
   3   1 -11  223.38    8.50
  11   3  -1  228.98    9.40
  -1   3 -11  237.48    9.40
  -3   1  11  240.68    9.00
 -11  -1   3  233.18    9.60
 -11   1  -3  233.58    9.80
 -11   3   1  233.28    9.50
  -3  -1 -11  227.68    9.30
   1   3  11  230.78    9.20
  11   3  -3 2301.17   83.89
  -3   3 -11 2263.27   84.09
 -11   3   3 2277.47   83.89
   3   3 -11 2274.07   83.59
  11   3   3 2399.96   84.29
 -11   3  -3 2324.47   84.39
  -3   3  11 2286.27   83.39
   1   5 -11    2.40    0.80
 -11   5  -1    3.40    1.00
  -5   1 -11    3.10    1.00
 -11   1   5    3.80    0.80
  11  -1   5    3.10    1.10
  11   1  -5    3.40    0.70
 -11  -1  -5    1.90    1.00
  11   5   1    1.70    1.10
  -1   5  11    3.50    0.80
   5  -1  11    2.30    1.10
  -5  -1 -11    1.70    0.80
  -1   5 -11    2.20    0.90
  11   1   5    4.70    1.30
  11   5  -1    3.50    1.20
   1   5  11    2.80    0.90
 -11   5   1    3.40    0.90
 -11   1  -5    2.60    1.10
  -5   3 -11 1334.27   50.19
 -11  -3  -5 1225.88   50.89
  11   3  -5 1372.46   49.60
 -11   3   5 1365.96   49.50
 -11   5  -3 1378.56   50.29
  11   5   3 1306.77   50.19
   3   5  11 1454.55   50.39
 -11   3  -5 1361.36   50.39
  -5   3  11 1331.87   49.00
 -11   5   3 1400.86   49.70
  11   3   5 1359.36   50.19
  11   5  -3 1351.36   49.99
   5   3 -11 1356.46   49.20
  -3   5 -11 1357.26   50.19
  11   5  -5 1964.70   70.09
 -11   5   5 1943.31   69.79
 -11   5  -5 1839.22   71.19
 -11   7  -1  710.93   26.50
  11  -1   7  701.53   27.20
  11   7   1  696.53   26.70
 -11  -1  -7  681.63   26.90
 -11   1   7  688.43   25.90
 -11   1  -7  685.23   26.90
  11   7  -1  703.33   26.70
 -11   7   1  689.53   26.30
  -7  -1 -11  708.03   26.70
 -11   7  -3  161.28    7.50
  -7   3 -11  166.28    7.70
  11  -3   7  168.88    8.00
 -11   3   7  162.18    6.60
  11   3  -7  163.18    6.70
  11   7  -3  165.98    7.50
   7   3 -11  175.58    6.50
   7   3 -11  163.88    6.30
 -11   3  -7  164.38    7.80
  -3   7 -11  158.88    7.60
 -11   5   7  385.86   14.50
  -7   5 -11  372.46   15.70
  11   5  -7  391.26   14.90
 -11   7  -5  369.36   15.70
 -11   5  -7  373.56   15.70
   5   7  11  412.26   16.10
  -5   7 -11  392.26   15.70
  11   7  -5  380.06   15.30
  -7   7 -11   40.00    3.40
 -11   7  -7   36.90    3.50
 -11  -1  -9  733.13   28.00
  -9   1 -11  718.13   27.80
  -9  -1 -11  724.13   27.80
 -11   1  -9  707.73   27.90
  11   3  -9   66.89    2.90
 -11  -3  -9   69.39    4.40
 -11   3   9   66.99    3.10
  -9   3 -11   62.09    4.20
 -11   5   9   14.70    1.10
  -9   5 -11   10.00    2.00
  11   5  -9   12.50    1.40
 -11   9  -5    8.70    1.90
 -11   5  -9   10.80    2.00
  -5   9 -11   16.50    2.30
 -11   9  -7   81.29    5.10
  -9   7 -11   80.69    5.10
  11   7  -9   76.69    4.20
  -7   9 -11   82.39    5.10
 -11   7  -9   77.09    5.10
 -11   9  -9  169.88    8.60
  -9   9 -11  168.58    8.50
  -9  11  -9  174.68    8.60
 -11  -1 -11  494.45   20.30
 -11   1 -11  515.25   20.40
 -11   3 -11  554.24   22.20
 -11   5 -11  291.77   13.20
 -11   5  11  313.67   11.30
 -11   7 -11   -1.80    1.40
 -11  11  -7    1.20    1.90
  -7  11 -11   -1.40    1.30
 -11   9 -11    5.30    1.90
 -11  11  -9    3.90    1.80
  -9  11 -11    4.60    1.90
 -11  11 -11    7.60    2.30
 -12   0   0 2731.83   99.99
   0   0 -12 2698.03   99.29
   0   0  12 2754.92   99.59
  12   0   0 2779.92   99.69
 -12   0  -2   -1.70    0.80
 -12   0   2   -0.20    0.70
   0   2 -12   -0.70    0.60
   0   2  12    1.10    0.70
  12   0  -2    0.70    0.70
  12   0   2    0.30    0.90
  12   2   0    1.20    0.90
 -12  -2   0   -0.90    0.80
 -12   2   0   -0.50    0.70
  -2   0 -12    1.70    0.70
  12   2  -2  247.98   10.00
  12   2   2  239.48   10.30
 -12  -2  -2  246.08   10.60
 -12   2  -2  262.27   10.50
 -12   2   2  242.18   10.10
  -2   2 -12  243.28   10.00
   2   2 -12  247.58    9.60
  12  -2   2  252.77   10.20
   2   2  12  254.37   10.10
  12   4   0  482.55   18.70
  -4   0 -12  471.35   18.50
 -12   0  -4  486.25   19.10
 -12   0   4  477.35   18.50
   0   4 -12  478.05   18.40
   0   4  12  480.75   18.20
 -12   4   0  474.65   18.70
  12   0  -4  491.05   18.00
  12   0   4  483.85   18.80
  12   2  -4 1846.12   67.39
 -12   4  -2 1875.11   68.09
  12  -2   4 1880.01   67.89
  12   4   2 1840.92   67.99
 -12   2   4 1790.92   67.59
  -4   2 -12 1868.41   67.89
  -2   4  12 1847.62   67.19
   2   4 -12 1836.22   67.49
  -2   4 -12 1834.92   67.79
   2   4  12 1902.11   67.69
  12   4  -2 1861.41   67.79
  -4   2  12 1856.31   67.09
 -12   2  -4 1887.51   68.29
   4  -2  12 1820.32   67.89
   4   2 -12 1805.02   66.79
 -12   4   2 1840.32   67.69
  12   4  -4 3860.11  139.29
 -12   4   4 3829.22  139.19
 -12   4  -4 3822.52  139.89
   4   4  12 3933.51  141.09
  12   4   4 3841.32  139.79
   4   4 -12 3791.52  138.99
  -4   4 -12 3787.22  139.69
  -4   4  12 3857.41  138.59
   0   6 -12   63.79    3.60
  -6   0 -12   63.09    3.80
 -12   6   0   60.99    3.60
  12   0   6   66.59    4.50
  12   6   0   64.49    4.00
 -12   0  -6   64.79    4.20
   2   6 -12  237.78    9.80
 -12   2   6  237.08    9.60
  12   2  -6  242.88    9.30
 -12   6  -2  240.68   10.20
  12  -2   6  225.38   10.20
 -12  -2  -6  239.58   10.60
  12   6   2  237.38   10.30
  -2   6 -12  225.38   10.60
 -12   6   2  246.18    9.90
 -12   2  -6  245.28   10.50
  -6  -2 -12  227.18   10.00
  12   6  -2  252.37   10.20
   2   6  12  244.88    9.80
  -6   4 -12 2002.70   72.79
 -12   4   6 1985.60   71.79
  12   4  -6 1963.70   71.89
  12   6  -4 1972.60   72.39
  -4   6 -12 2016.60   72.69
   4   6  12 1730.53   73.09
 -12   4  -6 2019.30   72.99
 -12   6   4 2073.29   72.09
   6   4 -12 1988.50   71.59
  12   6  -6  964.90   36.60
  -6   6 -12 1005.30   37.30
 -12   6  -6  975.90   37.40
 -12   8   0  378.96   14.80
  -8   0 -12  376.66   15.20
 -12   0  -8  353.76   15.30
 -12  -2  -8   12.80    2.10
 -12   2   8   14.80    1.60
  -8   2 -12    7.30    1.60
 -12   8  -2   13.10    1.80
  -2   8 -12    8.00    1.70
 -12   2  -8    8.70    1.80
 -12   8   2    9.20    1.40
   2   8  12    9.00    1.80
  12   8  -2   11.60    2.10
  -8  -2 -12    9.70    1.80
  -8   4 -12  541.75   21.20
 -12   8  -4  528.75   21.10
 -12   4   8  511.05   19.90
  12   4  -8  529.95   20.00
   8   4 -12  535.35   19.60
  -4   8 -12  547.65   21.10
 -12   4  -8  517.35   21.20
   8   4 -12  537.45   19.70
  12   8  -4  541.45   20.90
  -8   6 -12    1.80    1.50
 -12   8  -6    0.10    1.30
 -12   6   8    1.50    0.60
  12   6  -8    1.50    1.10
  -6   8 -12   -1.30    1.40
 -12   6  -8   -1.00    1.20
  12   8  -6   -1.50    1.30
  -8   8 -12  233.18   10.40
  12   8  -8  210.98    9.50
 -12   8  -8  225.88   10.40
 -10   0 -12  368.16   15.30
 -12   0 -10  367.66   15.40
 -10   2 -12   51.09    3.90
 -12  -2 -10   49.70    4.10
 -12  10  -2   54.49    3.70
 -12   2 -10   50.39    4.00
 -10  -2 -12   43.60    3.90
 -12  10  -4  771.02   30.10
  12   4 -10  825.72   28.90
 -12   4  10  777.52   28.60
 -10   4 -12  750.12   30.10
  -4  10 -12  764.52   30.10
 -12   4 -10  775.42   30.30
 -10   6 -12  155.18    7.90
 -12   6  10  154.78    6.10
 -12  10  -6  146.09    7.80
  -6  10 -12  150.68    7.80
 -12   6 -10  156.38    8.00
  12   8 -10    8.70    1.80
 -10   8 -12    6.50    2.00
 -12  10  -8   14.90    2.50
 -12   8 -10    7.60    2.10
  -8  10 -12    7.60    1.90
 -10  12  -8   12.40    2.30
 -12  10 -10   33.20    4.00
 -10  10 -12   30.40    4.00
 -10  12 -10   33.30    4.00
 -12   0 -12   11.20    2.20
 -12  -2 -12  345.07   14.80
 -12   2 -12  338.37   14.70
 -12   4 -12 1922.61   71.69
 -12   6 -12  710.53   28.70
 -12   6  12  731.93   26.50
 -12  12  -6  717.63   28.50
  -6  12 -12  729.83   28.60
  12   6 -12  726.03   26.90
 -12   8 -12   99.19    6.40
 -12  12  -8  104.09    6.50
  -8  12 -12   94.09    6.40
  12   8 -12  101.79    5.30
 -12  10 -12  371.26   16.10
 -12  12 -10  354.86   15.90
 -10  12 -12  354.06   15.90
 -12  12 -12  667.73   27.30
 -13  -1  -1  427.06   17.00
 -13  -1   1  419.76   16.80
 -13   1  -1  418.06   16.80
 -13   1   1  413.26   16.70
  -1   1 -13  417.76   16.20
  -1   1  13  425.96   16.20
   1   1 -13  414.66   15.90
  13  -1  -1  433.56   16.30
  13  -1   1  422.86   16.50
  13   1  -1  434.96   16.40
  13   1   1  434.06   16.60
  -3   1 -13  607.84   23.30
 -13   1   3  609.54   23.40
  13   1  -3  622.14   23.10
  13   3   1  619.84   23.50
   1   3 -13  619.24   23.00
 -13   3  -1  601.34   23.60
   3   1  13  611.14   24.20
  13  -1   3  640.14   23.60
   1   3  13  619.54   23.20
 -13   3   1  602.54   23.40
  -3  -1 -13  626.44   23.20
  -1   3 -13  618.14   23.20
   3  -1  13  584.94   24.00
 -13  -1   3  591.04   23.50
  13   3  -1  617.74   23.40
 -13   1  -3  590.64   23.90
  13   1   3  652.33   24.00
 -13   3   3 1706.43   63.09
   3   3 -13 1726.83   62.59
 -13   3  -3 1714.63   63.69
  13   3  -3 1725.23   62.99
  13   3   3 1694.83   63.39
  -3   3  13 1724.53   62.49
  -3   3 -13 1741.63   63.19
 -13   1   5  543.25   20.60
 -13  -1  -5  520.55   21.30
  13  -1   5  530.75   21.00
   1   5 -13  534.35   20.60
  -5   1 -13  537.35   20.90
  13   5   1  530.85   21.00
 -13   5  -1  525.75   20.90
  13   1  -5  541.85   20.10
 -13   5   1  542.65   20.80
  -5  -1 -13  538.65   20.80
  -1   5 -13  550.44   20.80
 -13   1  -5  545.25   21.30
  13   5  -1  554.14   20.90
  13   3  -5 2142.79   76.09
 -13   3   5 2040.20   76.19
  -3   5  13 2128.19   75.69
   3   5 -13 2098.89   76.09
  -5   3 -13 2006.70   76.69
 -13  -3  -5 2076.19   77.09
  -3   5 -13 1893.71   77.19
 -13   5   3 2197.08   76.39
 -13   3  -5 2136.89   77.09
  13   5  -3 2154.28   76.49
  -5   3  13 2097.29   75.59
   5   3 -13 2060.89   75.49
  -5   5 -13 2717.53  100.49
  -5   5  13 2730.33   99.09
 -13   5  -5 2775.82  100.69
 -13   5   5 2749.32   99.79
  13   5  -5 2782.42   99.89
   5   5 -13 2704.33   99.59
 -13   1   7   47.30    2.90
 -13   7  -1   44.90    3.20
  -7   1 -13   48.90    3.50
 -13  -1  -7   40.80    3.60
 -13   1  -7   44.60    3.70
 -13   7   1   45.40    3.10
  -7  -1 -13   47.70    3.40
  13   7  -1   47.40    3.70
  -1   7 -13   47.00    3.40
  -7   3 -13  381.56   15.40
 -13  -3  -7  387.46   15.70
  13   3  -7  373.26   14.50
 -13   7  -3  382.16   15.40
 -13   3  -7  360.56   15.60
  -3   7 -13  382.06   15.30
  13   7  -3  368.86   15.10
   3   7  13  362.36   14.90
  13   5  -7  540.05   20.30
  -7   5 -13  532.45   21.20
 -13   7  -5  536.25   21.30
   7   5 -13  523.85   19.90
  13   7  -5  539.25   20.80
 -13   7   5  548.45   20.30
  -5   7 -13  515.75   21.10
 -13   5  -7  527.85   21.40
  13   7  -7  161.68    7.30
  -7   7 -13  154.48    7.90
 -13   7  -7  162.08    8.10
  -9   1 -13   82.29    5.00
 -13  -1  -9   81.39    5.20
 -13   9  -1   69.99    5.20
  -1   9 -13   88.89    4.90
 -13   1  -9   89.49    5.40
  -9  -1 -13   79.99    5.00
 -13   9   1   94.89    4.70
  -9   3 -13  100.19    5.80
 -13   9  -3   99.39    5.70
 -13  -3  -9   97.39    5.80
 -13   3  -9  107.59    6.00
  -3   9 -13  109.79    5.80
 -13   5   9   87.49    4.00
 -13   9  -5   83.79    5.30
  -9   5 -13   96.29    5.50
 -13   5  -9   84.99    5.50
   9   5 -13   88.99    3.80
  -5   9 -13   81.89    5.30
 -13   7   9  151.78    6.40
 -13   9  -7  158.18    8.10
  13   7  -9  169.08    7.20
  -9   7 -13  150.68    7.90
  13   9  -7  150.48    7.60
  -7   9 -13  152.98    7.90
 -13   7  -9  152.68    8.00
 -13   9  -9  143.09    7.70
  -9   9 -13  127.29    7.40
  13   9  -9  142.39    8.30
 -11   1 -13   34.90    3.70
 -13  -1 -11   34.80    3.70
 -11  -1 -13   34.60    3.60
 -13   1 -11   43.00    3.90
 -13  11  -3 1484.95   54.69
 -11   3 -13 1444.96   54.79
 -13   3 -11 1442.46   54.99
 -11   5 -13 1201.58   47.30
 -13   5  11 1237.18   45.50
 -13  11  -5 1250.77   47.30
  -5  11 -13 1263.37   47.30
 -13   5 -11 1281.17   47.50
  13   7 -11  273.97   11.10
 -13  11  -7  270.37   12.50
 -11   7 -13  265.07   12.50
 -13   7  11  277.37   10.50
  -7  11 -13  279.67   12.50
  11   7 -13  280.27   11.00
 -13   7 -11  267.57   12.60
 -11   9 -13  178.38    9.60
  13   9 -11  192.38    8.70
 -13  11  -9  193.58    9.70
  -9  13 -11  188.78    9.70
  -9  11 -13  171.38    9.50
 -11  13  -9  193.58    9.70
 -13   9 -11  189.78    9.70
 -13  11 -11  539.75   22.80
 -11  11 -13  557.54   22.80
 -11  13 -11  546.45   22.90
 -13  -1 -13  130.69    7.40
 -13   1 -13  128.09    7.30
 -13   3 -13 1391.66   52.79
 -13   5 -13 1515.65   58.19
 -13  13  -5 1561.04   57.99
 -13   7 -13  256.97   12.80
 -13  13  -7  287.17   12.90
  -7  13 -13  273.07   12.90
  13   7 -13  283.57   10.90
 -13   9 -13  195.58   10.00
 -13  13  -9  181.98    9.90
  -9  13 -13  175.98    9.70
  13   9 -13  190.78    8.40
 -13  11 -13 1116.09   43.80
 -13  13 -11 1113.49   43.80
 -11  13 -13 1145.19   43.90
 -13  13 -13  972.80   38.60
 -14   0   0 1740.33   64.69
   0   0  14 1753.02   65.49
  14   0   0 1761.32   64.29
 -14   0   2    3.10    1.10
  14   0  -2    2.50    1.00
  14   0   2    2.40    1.20
   2   0  14    1.00    1.20
  14   2   0    2.30    1.10
 -14  -2   0    0.20    1.30
 -14   2   0    4.50    1.30
  -2   0 -14    2.90    0.90
   2   2 -14   21.20    1.60
 -14  -2  -2   20.80    2.60
 -14   2   2   24.20    2.30
  -2   2 -14   23.30    2.10
  14   2  -2   26.70    2.40
  14   2   2   22.40    2.70
  14  -2   2   24.40    2.50
   0   4 -14  406.26   15.50
  14   0  -4  397.16   15.10
 -14   0   4  403.26   15.80
 -14   0  -4  393.16   16.30
 -14   4   0  395.96   15.90
  -4   0 -14  382.56   15.60
  14   4   0  385.66   15.80
  14   0   4  406.36   16.20
  14   2  -4  687.63   25.20
  -4   2 -14  647.14   26.10
   2   4 -14  663.33   25.20
  14  -2   4  672.83   25.80
 -14   2   4  658.73   25.50
 -14  -2  -4  677.43   26.40
 -14   4   2  660.03   25.60
  -4   2  14  694.43   25.00
 -14   2  -4  685.93   26.20
  14   4  -2  656.53   25.60
  -2   4 -14  686.63   25.60
 -14   4  -4 1586.24   59.69
  -4   4 -14 1579.44   59.39
  14   4  -4 1589.14   58.99
  -4   4  14 1677.03   59.19
   4   4 -14 1588.34   58.49
 -14   0  -6   66.19    4.50
  -6   0 -14   63.99    3.90
 -14   6   0   60.79    3.80
 -14   6  -2   68.99    5.00
 -14  -2  -6   69.09    4.90
  -2   6  14   70.89    3.70
   2   6 -14   70.19    3.90
  -6   2 -14   76.49    4.40
  14   2  -6   66.89    4.20
  14   6  -2   65.29    4.30
 -14   6   2   76.09    4.10
  -2   6 -14   72.19    4.30
 -14   2  -6   70.29    4.70
   4   6 -14  694.23   26.40
  14   4  -6  719.73   26.40
 -14   4   6  707.43   26.40
  -6   4 -14  683.63   27.10
 -14   6  -4  720.23   27.40
  14   6  -4  700.93   26.80
   6   4 -14  700.83   25.80
  -6   4  14  696.63   25.80
 -14   4  -6  701.43   27.50
  -4   6 -14  704.53   27.20
 -14   6  -6   70.79    4.90
  -6   6 -14   74.69    4.60
   6   6 -14   66.29    3.50
  14   6  -6   68.99    4.10
 -14   6   6   71.79    3.70
   0   8 -14  258.17   11.10
 -14   0  -8  259.87   11.70
 -14   8   0  263.57   11.10
  -8   0 -14  257.07   11.30
 -14   8  -2   44.50    3.70
 -14  -2  -8   42.70    4.10
 -14   2   8   42.90    2.80
  -8   2 -14   45.10    3.60
   2   8 -14   44.80    3.30
 -14   8   2   49.10    3.20
 -14   2  -8   40.10    3.90
  -2   8 -14   50.29    3.60
  -8  -2 -14   40.80    3.20
 -14   8  -4   77.79    4.90
  -8   4 -14   70.69    4.70
 -14   8   4   75.39    4.10
 -14   4  -8   71.39    5.10
  -4   8 -14   76.99    4.80
  14   8  -4   82.99    5.60
 -14   8  -6  232.28   10.60
 -14   6   8  228.08   10.40
  -8   6 -14  236.48   10.50
 -14   6  -8  227.18   10.70
  -6   8 -14  223.08   10.30
 -14   8   6  228.38    9.40
   8   6 -14  230.08    9.00
  14   8  -6  202.38   11.40
 -14   8  -8  547.75   22.90
 -14   8   8  586.54   21.40
  -8   8 -14  558.44   22.80
 -10   0 -14   89.89    5.60
 -14  10   0   94.29    5.60
 -14   0 -10   98.29    6.00
 -14  10  -2   54.99    4.00
 -10   2 -14   49.10    4.10
 -14  -2 -10   45.70    4.50
 -14  10   2   46.60    3.50
  -2  10 -14   51.09    4.00
 -14   2 -10   47.40    4.40
 -10  -2 -14   48.00    3.90
 -14   4  10  261.37   10.30
 -14  10  -4  254.37   11.70
 -10   4 -14  259.87   11.80
 -14  10   4  262.07   10.80
 -14   4 -10  257.17   12.00
  -4  10 -14  263.87   11.70
 -14   6  10    2.50    0.90
 -10   6 -14    4.40    2.10
  14   6 -10    2.20    1.20
 -14  10  -6    1.00    1.60
  10   6 -14    1.50    0.80
  -6  10 -14    2.20    1.70
 -14   6 -10    2.50    1.80
 -10   8 -14   58.59    4.90
 -14  10  -8   55.99    4.90
  14   8 -10   56.39    4.00
  -8  10 -14   59.29    5.00
 -14   8 -10   63.99    5.20
 -10  14 -10   12.10    2.80
 -14  10 -10    8.10    2.50
 -10  10 -14    9.50    2.60
  14  10 -10   12.60    2.60
 -14   0 -12   46.90    4.40
 -12   0 -14   42.70    4.30
 -14  -2 -12  552.64   22.60
 -14  12  -2  546.95   21.90
 -12   2 -14  534.45   22.20
 -14   2 -12  568.84   22.50
 -12  -2 -14  524.05   22.10
 -14  12  -4 1774.92   65.09
 -12   4 -14 1724.53   65.19
  -4  12 -14 1753.12   65.09
 -14   4 -12 1693.33   65.29
 -12   6 -14  652.93   26.60
 -14   6  12  648.44   24.70
 -14  12  -6  678.43   26.60
  -6  12 -14  670.23   26.60
 -14   6 -12  660.43   26.70
 -14  12  -8  147.39    8.50
  14   8 -12  153.68    7.00
 -12   8 -14  147.39    8.50
  -8  14 -12  144.69    8.40
 -12  14  -8  152.38    8.50
 -14   8 -12  148.29    8.60
  -8  12 -14  152.98    8.50
  12   8 -14  160.18    6.80
 -14  12 -10  337.77   16.10
 -12  10 -14  360.86   16.20
  14  10 -12  362.86   14.80
 -10  14 -12  355.36   16.10
 -14  10 -12  361.16   16.20
 -12  14 -10  365.06   16.20
 -10  12 -14  350.26   16.00
 -14  12 -12  968.80   38.40
 -12  12 -14  976.90   38.40
 -12  14 -12  958.60   38.30
 -14   0 -14   14.80    2.90
 -14  -2 -14  118.49    7.10
 -14   2 -14  120.89    7.40
 -14   4 -14  752.72   30.40
 -14  14  -4  765.22   30.10
 -14   6 -14  117.89    7.50
 -14  14  -6  112.29    7.30
  -6  14 -14  115.59    7.30
 -14   8 -14    2.70    2.40
 -14  14  -8    2.30    2.50
  -8  14 -14    1.10    2.30
  14   8 -14    2.60    1.40
 -14  10 -14  122.89    8.20
 -14  14 -10  135.19    8.50
 -10  14 -14  121.89    8.10
 -14  12 -14  672.63   27.80
 -14  14 -12  648.44   27.60
 -12  14 -14  668.63   27.70
 -14  14 -14  136.59    9.50
 -15  -1  -1 1044.20   39.70
 -15   1  -1 1031.60   39.70
 -15   1   1 1048.00   39.50
  -1   1 -15 1052.09   38.70
   1   1 -15 1063.69   38.40
   1   1  15 1033.40   39.00
  15  -1  -1 1047.50   38.90
  15  -1   1 1062.19   39.10
  15   1  -1 1044.60   39.00
  15   1   1 1056.69   39.20
 -15  -1  -3    0.50    1.30
  -3   1 -15   -0.90    0.90
 -15   1   3    1.30    1.00
  15   3   1    1.50    1.40
 -15   3  -1   -2.60    1.80
   1   3 -15   -0.40    0.70
  15   1  -3   -1.50    1.00
  15  -1   3    1.20    1.40
 -15   3   1    0.90    1.00
 -15   1  -3    1.50    1.40
  -1   3 -15    0.30    0.90
 -15  -1   3   -1.10    1.00
  15   3  -1   -0.80    1.20
 -15   3  -3  165.28    8.00
   3   3 -15  165.08    6.60
  15   3  -3  161.68    7.30
 -15   3   3  168.28    7.40
  -5   1 -15   37.80    2.90
 -15  -1  -5   36.00    3.60
 -15   1   5   31.20    2.60
   1   5 -15   32.80    2.40
 -15   5  -1   28.80    3.50
 -15   1  -5   32.50    3.40
 -15   5   1   29.30    2.80
  -1   5 -15   25.90    3.00
  15   5  -1   32.90    3.30
 -15   5  -3  112.39    6.20
  15   3  -5  112.59    5.30
   3   5 -15  116.79    5.20
  -5   3 -15  120.09    6.00
 -15   5   3  117.29    5.60
  -3   5 -15  119.29    5.90
  15   5  -3  105.79    5.70
 -15   3  -5  120.69    6.40
  -5   5  15  230.58    9.50
 -15   5   5  220.58    9.40
 -15   5  -5  213.88   10.20
  15   5  -5  231.88    9.50
  -5   5 -15  224.58   10.00
   5   5 -15  221.58    8.90
  -1   7  15  279.07   11.00
   1   7 -15  273.07   11.40
 -15  -1  -7  266.97   12.20
 -15   1   7  269.57   11.20
  -7   1 -15  277.17   11.70
 -15   7  -1  275.07   11.70
 -15   7   1  279.77   11.60
   1   7  15  230.78   12.70
 -15   1  -7  268.27   12.20
  -1   7 -15  277.07   11.60
  -7  -1 -15  282.57   11.70
  -7   3 -15    6.40    1.60
 -15   3   7    2.30    1.00
  -3   7  15    4.20    1.50
 -15   7  -3    4.60    1.70
 -15   3  -7    2.60    1.60
 -15   7   3    5.50    1.20
  -3   7 -15    1.50    1.30
 -15   7  -5   -0.70    1.50
   5   7 -15   -0.40    0.90
  -7   5 -15   -0.90    1.30
 -15   7   5    1.30    1.00
   7   5 -15    0.60    0.60
  -5   7 -15    1.30    1.40
  15   7  -5   -0.70    1.80
 -15   5  -7    0.30    1.60
  -7   7 -15  470.75   19.40
   7   7 -15  469.65   18.10
 -15   7  -7  475.25   19.60
 -15   7   7  474.35   18.20
   1   9 -15  376.86   15.60
  -9   1 -15  382.96   16.00
 -15  -1  -9  382.06   16.40
 -15   9  -1  403.26   16.00
 -15   1  -9  376.36   16.40
  -1   9 -15  385.36   15.80
  -9  -1 -15  373.76   15.90
 -15   3   9   77.19    4.00
 -15   9  -3   74.59    5.10
  -9   3 -15   78.49    5.00
   3   9 -15   74.99    4.50
  -3   9 -15   74.49    4.90
 -15   9   3   70.99    4.30
 -15   3  -9   82.29    5.50
 -15   5   9  166.78    7.40
  15   5  -9  180.78    7.40
  -9   5 -15  179.08    8.80
 -15   9  -5  175.18    8.90
 -15   9   5  180.48    7.80
 -15   5  -9  176.18    9.10
  -5   9 -15  177.68    8.70
  -9   7 -15  653.23   26.00
  15   7  -9  647.94   24.70
 -15   9  -7  665.43   26.20
  -7   9 -15  647.24   25.90
 -15   7  -9  632.64   26.10
   9   7 -15  644.74   25.00
 -15   9  -9  960.10   37.70
  15   9  -9  965.30   36.50
  -9   9 -15  965.10   37.50
 -15  -1 -11   47.10    4.60
 -11   1 -15   49.80    4.40
 -15  11  -1   49.80    4.10
 -11  -1 -15   50.29    4.50
 -15  11   1   54.29    4.00
 -15   1 -11   48.70    4.70
  -1  11 -15   50.09    4.20
 -15  11  -3  181.88    9.10
 -11   3 -15  193.98    9.40
  -3  11 -15  179.98    9.10
 -15  11   3  192.58    8.50
 -15   3 -11  178.18    9.60
 -11   5 -15  138.69    7.80
  15   5 -11  139.79    5.60
 -15  11  -5  141.99    7.70
  -5  11 -15  118.59    7.40
 -15   5 -11  134.49    7.90
 -11   7 -15    1.00    2.10
 -15  11  -7    2.20    2.20
  15   7 -11    1.00    1.40
  -7  11 -15   -3.50    1.90
 -15   7 -11   -1.00    1.90
 -15  11  -9   73.19    6.00
 -11   9 -15   79.09    5.80
  15   9 -11   72.49    4.80
  -9  11 -15   73.19    5.80
 -15   9 -11   68.89    6.00
 -11  15  -9   67.59    5.90
 -15  11 -11    7.10    2.80
 -11  15 -11    7.60    3.10
 -11  11 -15    7.50    2.80
 -15  13  -1    3.70    1.90
 -15  -1 -13    9.30    2.60
 -13   1 -15    6.30    2.30
 -15  13   1    7.40    2.00
 -13  -1 -15    5.10    2.40
 -15   1 -13    4.30    2.30
 -13   3 -15  593.44   24.50
 -15  13  -3  603.74   24.30
  -3  13 -15  598.54   24.30
 -15   3 -13  603.54   24.70
 -13   5 -15  527.05   21.90
 -15  13  -5  522.05   21.70
  -5  13 -15  512.05   21.60
 -15   5 -13  526.15   22.00
  -7  15 -13   46.60    5.20
 -13   7 -15   52.39    5.20
 -15  13  -7   48.60    5.20
 -13  15  -7   48.00    5.10
  -7  13 -15   48.20    5.30
 -15   7 -13   58.99    5.40
  15   9 -13    7.60    2.10
 -15  13  -9    0.40    2.40
  -9  15 -13   -1.20    2.20
 -13   9 -15    5.90    2.40
 -13  15  -9    2.80    2.50
  13   9 -15    2.60    1.80
 -15   9 -13   -0.40    2.40
  -9  13 -15    3.30    2.50
 -15  13 -11  364.36   16.50
 -11  15 -13  350.26   16.30
 -13  11 -15  353.46   16.30
 -13  15 -11  351.26   16.30
 -11  13 -15  330.97   16.10
 -15  11 -13  350.96   16.40
 -15  13 -13  438.46   19.70
 -13  13 -15  434.96   19.60
 -13  15 -13  434.46   19.60
 -15  -1 -15  534.05   22.80
 -15   1 -15  544.15   22.70
 -15   3 -15   41.30    5.40
 -15  15  -3   43.10    4.60
 -15   5 -15   33.30    4.40
 -15  15  -5   39.80    4.70
  -5  15 -15   31.80    4.00
 -15   7 -15  114.79    7.80
 -15  15  -7  113.99    7.80
  -7  15 -15  119.59    7.80
 -15   9 -15  342.07   16.30
 -15  15  -9  350.16   16.30
  -9  15 -15  359.76   16.30
 -15  11 -15    4.60    3.10
 -15  15 -11    6.20    3.00
 -11  15 -15    8.80    3.30
 -15  13 -15    9.60    3.50
 -15  15 -13    6.70    3.40
 -13  15 -15   11.00    3.40
 -15  15 -15  411.56   19.40
 -16   0   0 3740.23  137.49
  16   0   0 3790.02  136.89
 -16   0  -2  861.51   33.30
   0   2 -16  884.91   32.10
   0   2  16  826.32   32.40
  16   0  -2  883.71   32.30
  16   0   2  857.11   32.70
 -16   2   0  904.21   33.10
  -2   0 -16  831.32   32.10
  16   2   0  863.61   32.60
 -16  -2  -2  527.15   22.10
 -16   2  -2  541.25   22.00
 -16   2   2  559.34   21.70
  -2   2 -16  569.94   21.20
  16   2  -2  562.64   21.30
   2   2 -16  554.44   20.50
   0   4 -16  205.18    8.80
 -16   0  -4  217.78   10.00
 -16   0   4  208.98    9.40
 -16   4   0  214.38    9.50
  -4   0 -16  195.38    9.40
  16   2  -4   29.70    2.60
 -16   4  -2   24.60    3.20
  -4   2 -16   33.10    2.80
   2   4 -16   27.90    2.20
 -16   2   4   35.50    2.70
  -2   4  16   32.90    2.50
 -16  -2  -4   23.30    3.00
  -2   4 -16   32.90    2.80
 -16   2  -4   32.60    3.50
 -16   4   2   33.30    2.90
  16   4  -2   30.10    3.20
  -4   4 -16   19.50    2.60
 -16   4  -4   11.00    2.30
 -16   4   4   18.80    2.20
  16   4  -4   18.50    2.10
   4   4 -16   15.90    1.50
  -6   0 -16  181.48    8.30
   0   6 -16  188.38    8.20
   0   6  16  175.38    8.30
 -16   0  -6  183.98    9.10
 -16   6   0  178.98    8.50
 -16   6  -2   11.80    2.20
 -16   2   6   12.90    1.60
 -16  -2  -6    9.50    2.30
   2   6 -16   13.30    2.50
  -6   2 -16    9.80    1.80
  -2   6  16   12.90    1.60
 -16   6   2   12.80    1.90
 -16   2  -6    8.60    2.10
  -2   6 -16   11.60    1.80
  -6   4 -16   70.39    4.70
 -16   6  -4   77.69    5.10
   4   6 -16   70.09    3.80
 -16   4   6   76.79    4.20
 -16   6   4   74.89    4.30
 -16   4  -6   79.69    5.30
  -4   6 -16   72.19    4.70
  16   6  -4   80.49    4.70
 -16   6  -6   77.99    5.50
   6   6 -16   82.99    3.90
  -6   6 -16   81.39    5.10
 -16   6   6   77.89    4.30
   0   8 -16 1227.88   45.40
 -16   8   0 1219.88   45.60
 -16   0  -8 1201.28   46.30
  -8   0 -16 1190.78   45.60
 -16  -2  -8  788.82   31.70
 -16   2   8  811.92   30.30
 -16   8  -2  813.02   31.00
   2   8 -16  788.42   30.40
  -8   2 -16  815.82   31.00
  -2   8 -16  821.02   30.80
 -16   2  -8  803.32   31.50
 -16   8   2  750.12   31.30
   4   8 -16  374.76   15.20
 -16   4   8  370.76   15.00
  -4   8  16  395.46   15.00
 -16   8  -4  386.06   16.20
  -8   4 -16  385.36   16.10
  16   4  -8  377.56   14.60
  -4   8 -16  381.46   15.90
 -16   8   4  376.56   15.30
 -16   4  -8  380.66   16.50
  -8   6 -16  671.13   26.70
  16   6  -8  684.63   25.60
   6   8 -16  646.54   26.00
 -16   8  -6  674.63   27.00
  -6   8 -16  661.03   26.70
 -16   6  -8  675.73   27.10
 -16   8   6  692.83   25.80
  16   8  -6  687.93   26.30
  -8   8 -16 2108.19   77.89
   8   8 -16 2114.39   76.39
  16   8  -8 2050.19   76.79
 -16   8  -8 2091.39   78.19
 -16  10   0 1046.20   39.60
 -10   0 -16 1044.90   39.90
   0  10 -16 1043.10   39.60
 -16   0 -10 1029.00   40.40
 -16  -2 -10  269.77   12.80
 -10   2 -16  270.27   12.20
 -16  10  -2  261.97   12.10
   2  10 -16  265.57   11.60
 -16  10   2  273.37   11.70
  -2  10 -16  272.77   12.00
 -16   2 -10  262.07   12.60
 -16  10  -4  130.79    7.40
 -10   4 -16  131.39    7.30
   4  10 -16  129.09    6.60
 -16  10   4  127.79    6.40
 -16   4 -10  128.89    7.70
  -4  10 -16  126.69    7.10
 -10   6 -16  180.28    9.10
  16   6 -10  175.98    7.40
 -16  10  -6  175.58    9.20
 -16   6 -10  166.88    9.30
  -6  10 -16  167.98    8.90
  16   8 -10 1103.29   40.80
 -16  10  -8 1098.49   42.40
 -10   8 -16 1080.19   42.20
 -16   8 -10 1066.69   42.40
  -8  10 -16 1109.59   42.20
 -10  10 -16  813.62   31.80
 -16  10 -10  799.12   32.00
  16  10 -10  769.62   30.90
   0  12 -16  138.69    7.70
 -16   0 -12  150.58    8.50
 -16  12   0  147.59    7.70
 -12   0 -16  151.08    8.10
 -12   2 -16    4.30    2.10
 -16  12  -2    1.70    1.90
 -16  -2 -12    5.10    2.10
  -2  12 -16    3.10    2.00
 -16   2 -12    2.90    2.20
 -16  12   2    2.80    1.80
 -12   4 -16  273.07   12.80
 -16  12  -4  281.07   12.70
 -16   4 -12  275.77   13.20
  -4  12 -16  265.57   12.60
  16   6 -12  100.99    4.40
 -16  12  -6  109.49    7.20
 -12   6 -16  103.09    6.90
  -6  12 -16  106.79    7.00
 -16   6 -12   99.29    7.10
  16   8 -12  101.39    5.10
 -16  12  -8   85.39    6.80
 -12   8 -16   93.49    6.70
  12   8 -16   83.19    4.40
 -16   8 -12   96.89    7.00
  -8  12 -16   89.59    6.70
 -16  12 -10    5.20    3.30
 -12  10 -16    3.70    2.80
 -10  16 -12    6.40    3.20
 -10  12 -16    5.40    2.70
 -12  16 -10    1.80    2.70
 -16  10 -12    4.90    2.80
 -12  12 -16  147.69    9.30
 -16  12 -12  143.39    9.40
 -12  16 -12  153.28    9.40
 -14   0 -16  361.86   16.30
 -16  14   0  361.16   15.70
 -16   0 -14  368.86   16.50
 -14   2 -16   92.69    6.60
 -16  14  -2   94.19    6.30
  -2  14 -16   87.99    6.20
 -16  14   2   95.99    5.80
 -16   2 -14   95.19    7.00
 -16  14  -4   12.60    2.80
 -14   4 -16    8.00    2.80
 -16   4 -14   10.70    2.80
  -4  14 -16    9.10    2.80
 -14   6 -16   -1.00    2.50
 -16  14  -6    1.30    2.40
 -14  16  -6    0.00    2.30
  -6  14 -16   -0.40    2.30
 -16   6 -14    4.70    2.40
  -8  16 -14  272.97   13.50
 -14   8 -16  266.57   13.30
 -16  14  -8  254.87   13.20
  -8  14 -16  264.47   13.30
 -16   8 -14  287.07   13.70
 -14  16  -8  278.67   13.40
 -16  14 -10   84.09    7.30
 -14  10 -16   90.09    7.20
 -10  16 -14   87.29    7.20
 -14  16 -10   84.49    7.20
 -16  10 -14   76.69    7.20
 -10  14 -16   80.79    7.00
 -12  16 -14   50.09    6.40
 -16  14 -12   53.79    6.50
 -14  12 -16   39.60    5.40
 -14  16 -12   48.20    6.40
 -12  14 -16   52.59    6.60
 -16  12 -14   59.39    6.70
 -16  14 -14    8.60    3.90
 -14  14 -16   13.00    4.00
 -14  16 -14   13.40    3.90
 -16   0 -16 1131.09   44.40
 -16   2 -16  678.33   28.20
 -16  16  -2  684.13   27.50
 -16   4 -16  206.28   11.50
 -16  16  -4  219.48   11.30
  -4  16 -16  212.08   11.10
 -16   6 -16   71.49    6.80
 -16  16  -6   73.99    6.80
  -6  16 -16   85.29    6.80
 -16   8 -16 1015.70   40.80
 -16  16  -8 1010.80   40.60
  -8  16 -16 1043.70   40.70
 -16  10 -16  663.83   28.30
 -16  16 -10  673.23   28.40
 -10  16 -16  681.13   28.30
 -16  12 -16   38.60    5.30
 -16  16 -12   52.69    6.20
 -12  16 -16   42.10    5.40
 -16  14 -16  251.97   15.10
 -16  16 -14  251.87   14.50
 -14  16 -16  268.17   15.10
 -16  16 -16  763.82   32.60
 -17  -1  -1 2037.00   75.19
 -17  -1   1 1984.90   74.99
 -17   1  -1 2004.50   74.99
 -17   1   1 2018.90   74.89
  -1   1 -17 2065.49   73.79
  17  -1   1 2009.70   74.79
  17   1   1 2038.10   74.69
 -17  -1  -3  538.15   22.10
 -17   1   3  519.75   22.20
 -17   3  -1  552.94   21.80
  -1   3  17  539.65   20.80
   1   3 -17  541.95   20.50
  -3   1 -17  532.15   21.20
  17   1  -3  576.24   20.90
 -17   1  -3  527.35   21.90
  17   3  -1  527.25   21.20
  -1   3 -17  549.95   20.80
 -17   3   1  557.94   21.60
 -17   3  -3  146.99    7.80
   3   3 -17  155.58    6.20
  -3   3 -17  161.78    7.20
 -17   3   3  134.19    8.20
 -17  -1  -5   15.00    2.70
 -17   1   5   20.10    2.40
   1   5 -17   17.90    2.10
 -17   5  -1   21.90    2.70
  -5   1 -17   15.90    2.20
  17   1  -5   21.70    2.20
 -17   5   1   18.60    2.50
  -1   5 -17   15.20    2.10
 -17   1  -5   22.30    3.00
  17   3  -5   35.00    2.90
 -17   5  -3   30.80    3.70
 -17   3   5   37.70    3.00
  -5   3 -17   35.20    3.20
   3   5 -17   34.60    2.50
  17   5  -3   36.40    3.60
 -17   3  -5   38.90    4.10
 -17   5   3   36.80    3.30
  -3   5 -17   38.80    3.20
 -17   5  -5  702.33   28.00
  17   5  -5  695.63   27.70
   5   5 -17  697.73   26.20
  -5   5 -17  745.23   27.50
 -17   5   5  682.23   26.90
  -7   1 -17  796.82   30.40
 -17  -1  -7  775.12   31.20
   1   7 -17  777.72   29.90
 -17   7  -1  791.02   30.60
 -17   7   1  791.32   30.40
 -17   1  -7  807.82   31.20
  -1   7 -17  791.42   30.20
  -7  -1 -17  764.62   30.10
  -7   3 -17  388.06   15.90
 -17   3   7  377.46   15.30
 -17   7  -3  391.16   16.20
   3   7 -17  377.16   15.10
  17   3  -7  381.36   14.60
 -17   3  -7  378.86   16.50
  -3   7 -17  382.46   15.70
 -17   7   3  357.46   17.70
  17   5  -7    1.40    1.40
 -17   7  -5   -1.00    1.80
   5   7 -17    1.40    1.10
  -7   5 -17    2.80    1.90
 -17   5   7   -0.40    1.10
  17   7  -5    2.00    2.20
 -17   7   5    2.40    1.30
 -17   5  -7    0.30    1.80
  -5   7 -17    2.00    1.70
  -7   7 -17 1085.99   41.00
 -17   7  -7 1075.89   41.40
  17   7  -7 1079.59   40.10
 -17   7   7 1029.10   41.70
   1   9 -17 1288.37   48.20
 -17   9  -1 1307.17   48.60
 -17  -1  -9 1291.57   49.40
  -9   1 -17 1268.97   48.60
  -1   9 -17 1299.87   48.40
 -17   1  -9 1298.97   49.30
 -17   9   1 1281.87   48.40
  -9  -1 -17 1242.38   48.40
 -17   9  -3  779.62   31.70
  -9   3 -17  821.72   31.70
   3   9 -17  797.62   30.90
 -17   3   9  827.12   30.80
 -17   9   3  814.62   31.40
  -3   9 -17  803.92   31.40
 -17   3  -9  819.22   32.20
 -17   9  -5  244.18   11.40
  -9   5 -17  239.88   11.20
   5   9 -17  236.98   10.20
  17   5  -9  237.18    9.60
  -5   9 -17  239.18   11.10
 -17   5  -9  223.38   11.60
  17   7  -9 1683.13   61.79
  -9   7 -17 1686.03   63.29
 -17   9  -7 1686.73   63.59
   7   9 -17 1695.93   61.89
   9   7 -17 1741.63   61.19
  -7   9 -17 1640.54   63.19
 -17   7  -9 1690.03   63.59
   9   7 -17 1619.54   61.49
 -17   9  -9 2232.38   82.39
  -9   9 -17 2216.18   82.09
   9   9 -17 2140.19   80.89
   1  11 -17  361.46   15.40
 -17  -1 -11  386.76   16.70
 -17  11  -1  367.06   15.70
 -11   1 -17  365.86   15.90
 -17  11   1  378.06   15.50
 -17   1 -11  361.36   16.50
  -1  11 -17  351.96   15.60
 -11  -1 -17  359.96   15.80
 -17  11  -3    6.90    2.20
 -11   3 -17    6.40    2.40
   3  11 -17    7.90    2.00
 -17   3 -11    7.80    2.70
  -3  11 -17    5.40    2.10
 -17  11   3    5.90    2.00
 -17  11  -5   56.89    5.60
 -11   5 -17   77.69    5.70
   5  11 -17   69.29    4.70
 -17   5 -11   78.59    6.10
 -17  11   5   67.69    5.70
  -5  11 -17   71.69    5.50
  17   7 -11  254.67   10.70
 -17  11  -7  266.07   12.90
 -11   7 -17  270.37   12.70
 -17   7 -11  277.87   13.20
  -7  11 -17  259.17   12.60
 -11   9 -17  519.85   22.00
 -17  11  -9  526.85   22.30
  -9  11 -17  527.65   22.00
  11   9 -17  496.05   20.40
 -17   9 -11  529.05   22.40
 -11  17 -11   60.99    6.50
 -17  11 -11   71.39    6.60
 -11  11 -17   76.19    6.30
   1  13 -17   85.99    5.90
 -17  13  -1   93.69    6.10
 -17  -1 -13   79.19    6.90
 -13   1 -17   85.49    6.40
  -1  13 -17   90.99    6.10
 -17   1 -13   99.29    6.90
 -13  -1 -17  101.09    6.40
 -17  13   1   89.39    5.90
 -17  13  -3    8.80    2.70
 -13   3 -17    6.70    2.70
  -3  13 -17    7.60    2.50
 -17  13   3    5.90    2.00
 -17   3 -13    9.60    3.10
 -17  13  -5  276.77   13.40
 -13   5 -17  283.27   13.50
 -17   5 -13  298.37   14.00
 -17  13   5  281.67   12.20
  -5  13 -17  272.77   13.20
 -17  13  -7   63.79    5.90
 -13   7 -17   54.09    5.90
  -7  13 -17   49.99    5.50
 -17   7 -13   48.20    5.90
 -17  13  -9  211.38   11.70
 -13   9 -17  216.78   11.50
  -9  17 -13  215.88   11.60
  -9  13 -17  214.68   11.30
 -17   9 -13  215.68   11.70
 -13  17  -9  204.68   11.40
 -17  13 -11    7.60    3.40
 -13  11 -17    4.90    3.10
 -11  17 -13   11.60    3.40
 -13  17 -11   13.90    3.60
 -11  13 -17   12.10    3.80
 -17  11 -13    9.50    3.50
 -13  17 -13   44.70    5.50
 -17  13 -13   37.20    5.10
 -13  13 -17   37.60    5.20
 -15   1 -17  555.74   23.50
 -17  15  -1  544.05   23.00
 -17  -1 -15  549.95   23.70
 -15  -1 -17  557.84   23.40
 -17   1 -15  579.44   23.90
  -1  15 -17  557.24   23.10
 -17  15   1  556.94   22.70
 -17  15  -3  143.89    8.80
 -15   3 -17  157.28    9.30
 -17   3 -15  164.28    9.50
  -3  15 -17  152.08    8.90
 -17  15   3  153.88    8.10
 -17  15  -5    2.70    2.70
 -15   5 -17    2.10    2.90
 -17   5 -15    0.40    2.70
 -15  17  -5    1.30    2.60
 -17  15   5    1.40    1.90
  -5  15 -17    1.10    2.60
 -15   7 -17  250.87   12.70
  -7  17 -15  235.58   12.60
 -17  15  -7  251.07   12.70
 -17  15   7  240.28   10.90
 -17   7 -15  258.87   13.00
 -15  17  -7  236.68   12.60
  -7  15 -17  238.58   12.40
 -17  15  -9  638.14   27.20
 -15   9 -17  653.13   27.40
  -9  17 -15  636.64   27.20
  -9  15 -17  641.84   27.10
 -17   9 -15  656.93   27.50
 -15  17  -9  642.64   27.20
 -17  15 -11   62.79    7.50
 -15  11 -17   63.99    7.40
 -11  17 -15   77.89    7.50
 -11  15 -17   87.19    7.70
  15  11 -17   83.79    5.50
 -17  11 -15   74.49    7.70
 -15  17 -11   73.99    7.50
 -13  17 -15    2.40    3.60
 -15  13 -17   -1.60    3.50
 -17  15 -13    1.10    3.80
 -13  15 -17    4.00    3.60
 -15  17 -13    0.40    3.50
 -17  13 -15    3.80    3.70
 -17  15 -15  344.27   18.60
 -15  15 -17  319.77   17.50
 -15  17 -15  324.27   17.70
 -17   1 -17 1074.99   42.10
 -17  17  -1 1053.49   41.20
 -17  17   1 1045.80   40.90
 -17   3 -17  487.45   21.90
 -17  17  -3  497.55   21.30
  -3  17 -17  501.45   21.50
 -17   5 -17   13.20    4.00
 -17  17  -5   18.70    4.00
  -5  17 -17   14.10    3.60
 -17   7 -17  638.84   26.70
 -17  17  -7  625.14   26.40
  -7  17 -17  598.14   26.30
 -17   9 -17 1169.18   45.30
 -17  17  -9 1144.49   45.10
  -9  17 -17 1088.79   44.90
 -17  11 -17  255.37   14.30
 -17  17 -11  280.07   14.70
 -11  17 -17  270.87   14.60
 -17  13 -17   96.59   10.00
 -17  17 -13   78.29   10.50
 -13  17 -17   79.99    8.60
 -17  15 -17  447.96   21.60
 -17  17 -15  455.35   21.60
 -15  17 -17  434.06   21.40
 -17  17 -17  605.74   27.60
 -18   0   0 2543.55   93.39
  18   0   0 2513.85   92.59
 -18   0  -2  736.33   29.40
 -18   0   2  739.33   29.20
   0   2 -18  726.23   27.80
  18   0  -2  772.72   28.30
 -18   2   0  759.12   29.20
  -2   2 -18  414.86   17.70
 -18   2  -2  441.26   18.00
 -18   2   2  434.86   17.70
 -18   0   4   35.70    3.40
 -18   0  -4   27.00    3.50
   0   4 -18   31.50    3.00
 -18   4   0   33.20    3.50
 -18  -2  -4    9.00    2.10
  -4   2 -18    5.60    1.60
 -18   4  -2    4.00    2.00
  18   2  -4    4.50    1.50
 -18   2   4    5.90    1.70
   2   4 -18    5.10    1.10
  18   4  -2    2.20    2.00
 -18   2  -4    5.70    2.10
  -2   4 -18    4.50    1.50
 -18   4   2    4.60    1.70
 -18   4  -4  537.45   21.90
 -18   4   4  524.15   23.60
  -4   4 -18  544.35   21.10
  18   4  -4  526.95   20.80
  -6   0 -18  324.47   13.40
   0   6 -18  320.17   13.10
 -18   6   0  318.67   13.70
 -18   0  -6  308.27   14.30
 -18   2   6   98.79    5.80
  -2   6  18  102.59    5.50
   2   6 -18   92.09    5.80
 -18  -2  -6  110.19    6.60
  18   2  -6   96.89    4.70
  -6   2 -18   99.09    5.70
 -18   6  -2  101.59    6.20
 -18   2  -6   92.89    6.40
  -2   6 -18   98.79    5.60
 -18   6   2  102.29    5.80
 -18   6  -4  151.58    8.40
  18   4  -6  163.88    7.30
  -6   4 -18  171.28    8.10
 -18   4   6  158.98    7.60
 -18   4  -6  167.68    8.80
  -4   6 -18  153.78    7.90
 -18   6  -6   21.80    3.40
  18   6  -6   16.00    2.40
  -6   6 -18   15.70    2.50
 -18   8   0  957.50   37.20
   0   8 -18  956.70   36.70
 -18   0  -8  998.10   38.10
  -8   0 -18  966.00   37.20
   2   8 -18  650.43   25.50
  -8   2 -18  657.73   26.20
 -18   8  -2  669.63   26.50
 -18  -2  -8  669.83   27.00
 -18   2  -8  658.33   26.90
 -18   8   2  674.83   26.10
  -2   8 -18  659.03   26.00
  -8   4 -18   47.80    4.50
  18   4  -8   53.09    3.20
 -18   8  -4   47.10    4.80
   4   8 -18   50.09    3.60
 -18   8   4   50.99    4.10
 -18   4  -8   47.50    5.10
  -4   8 -18   55.89    4.40
 -18   8  -6  470.45   20.40
  -8   6 -18  496.35   20.10
  18   6  -8  481.75   18.80
  -6   8 -18  479.35   20.00
 -18   6  -8  490.55   20.70
  -8   8 -18 1448.66   54.49
 -18   8  -8 1418.36   54.79
 -10   0 -18  869.21   33.00
 -18   0 -10  828.52   33.60
 -18  10   0  825.42   32.70
   0  10 -18  839.02   32.50
 -18  -2 -10  206.08   10.60
 -18  10  -2  191.68    9.80
 -10   2 -18  205.38    9.90
   2  10 -18  195.68    9.20
 -18   2 -10  193.98   10.50
 -18  10   2  191.18    9.40
  -2  10 -18  200.68    9.60
   4  10 -18    4.70    1.70
 -10   4 -18   -1.20    1.90
 -18  10  -4    2.80    2.20
  -4  10 -18    2.70    2.10
 -18  10   4    1.40    1.70
 -18   4 -10   -1.80    2.20
 -18  10  -6  152.08    9.00
 -10   6 -18  159.28    8.80
   6  10 -18  166.38    7.60
  18   6 -10  163.78    7.00
 -18   6 -10  158.08    9.30
  -6  10 -18  158.48    8.70
 -18  10  -8  867.61   33.40
   8  10 -18  839.12   31.30
  -8  10  18  823.52   31.40
 -10   8 -18  819.92   32.90
 -18   8 -10  836.92   33.30
  -8  10 -18  841.02   32.90
  10   8 -18  773.72   30.70
  10  10 -18  609.24   22.90
 -18  10 -10  586.24   25.20
 -10  10 -18  596.04   24.90
 -18   0 -12  100.29    7.40
 -12   0 -18   92.29    6.80
   0  12 -18  100.79    6.30
 -18  12   0   97.69    6.40
 -12   2 -18    7.60    2.50
 -18  12  -2    3.60    2.10
   2  12 -18    4.70    2.10
 -18  12   2    3.70    2.00
 -18   2 -12    8.00    2.80
  -2  12 -18    5.40    2.30
   4  12 -18  374.26   15.90
 -12   4 -18  371.66   16.80
 -18  12  -4  385.76   16.90
 -18  12   4  380.66   15.90
  -4  12 -18  377.16   16.60
 -18   4 -12  390.26   17.50
 -12   6 -18   33.00    4.10
 -18  12  -6   31.20    4.20
   6  12 -18   30.80    3.90
 -18  12   6   39.10    3.90
  -6  12 -18   38.60    5.00
 -18   6 -12   34.50    4.70
   8  12 -18  114.69    6.20
 -18  12  -8  111.89    7.90
 -12   8 -18   95.29    7.40
 -18   8 -12  100.09    7.90
  -8  12 -18  116.39    7.60
 -10  18 -12   19.20    3.90
 -12  10 -18   19.90    3.80
 -18  12 -10   23.90    3.90
  10  12 -18   22.80    2.80
 -12  18 -10   22.80    4.10
 -18  10 -12   29.50    4.70
 -10  12 -18   24.40    3.80
  12  12 -18   59.99    4.40
 -12  12 -18   52.19    6.50
 -12  18 -12   59.79    6.90
 -18  12 -12   66.49    7.10
 -14   0 -18  113.19    8.00
 -18  14   0  120.69    7.20
 -18   0 -14  115.99    8.20
   0  14 -18  113.29    7.20
 -14   2 -18    7.30    2.80
 -18  14  -2    9.10    2.80
   2  14 -18   11.80    2.60
  -2  14 -18    8.70    2.80
 -18  14   2   11.50    2.70
 -18   2 -14    7.10    2.90
 -14   4 -18  142.59    8.90
 -18  14  -4  139.59    8.70
 -18  14   4  135.19    7.60
 -18   4 -14  153.38    9.40
  -4  14 -18  145.79    8.70
 -14   6 -18    6.00    3.00
 -18  14  -6    4.80    3.00
 -18  14   6    0.80    1.90
  -6  14 -18    3.80    2.70
 -18   6 -14    6.20    3.30
 -18  14  -8  118.49    8.80
 -14   8 -18  131.99    8.80
  -8  18 -14  121.89    8.60
 -18  14   8  123.69    7.50
  -8  14 -18  138.09    8.70
 -18   8 -14  124.29    9.00
 -14  18  -8  130.99    8.80
 -18  14 -10   28.00    4.80
 -10  18 -14   41.10    5.30
 -14  10 -18   31.40    4.60
 -18  10 -14   29.20    4.80
 -14  18 -10   30.40    4.80
 -10  14 -18   42.60    5.20
 -12  18 -14   88.79    8.00
 -14  12 -18   81.69    7.80
 -18  14 -12   76.19    7.80
 -14  18 -12   79.29    8.00
  14  12 -18   67.59    4.80
 -18  12 -14   77.09    8.00
 -12  14 -18   78.99    7.60
 -18  14 -14   19.00    5.60
 -14  14 -18   16.60    5.30
 -14  18 -14   17.90    6.90
 -18   0 -16  766.32   32.00
 -18  16   0  764.12   30.80
   0  16 -18  777.12   31.00
 -16   0 -18  773.32   31.60
 -16   2 -18  396.16   18.10
 -18  16  -2  396.56   17.50
 -18  16   2  389.86   17.00
 -18   2 -16  379.56   18.20
  -2  16 -18  395.56   17.60
 -16   4 -18   30.10    4.50
 -18  16  -4   24.50    4.00
 -18   4 -16   21.00    4.00
 -18  16   4   22.30    3.30
  -4  16 -18   29.50    4.20
 -16  18  -4   29.60    4.30
 -16   6 -18   65.59    7.20
 -18  16  -6   64.39    6.80
  -6  18 -16   69.69    6.90
 -18   6 -16   63.19    7.30
  -6  16 -18   70.09    6.80
 -16  18  -6   62.59    6.70
 -16   8 -18  668.43   28.40
  -8  18 -16  652.03   28.30
 -18  16  -8  652.03   28.30
 -18   8 -16  709.63   28.80
 -16  18  -8  675.63   28.40
  -8  16 -18  674.43   28.30
 -18  16 -10  358.26   17.90
 -10  18 -16  382.36   18.00
 -16  10 -18  382.76   18.20
 -16  18 -10  374.56   18.10
 -10  16 -18  359.16   17.70
 -18  10 -16  361.36   18.00
 -18  16 -12   10.60    4.80
 -16  18 -12   10.90    5.00
 -18  16 -14   94.79    9.50
 -16  14 -18  100.59    9.20
 -14  18 -16   99.59    9.20
 -18  14 -16   69.19    9.10
 -16  18 -14   80.79    9.50
 -14  16 -18   94.79    9.30
 -18  16 -16  453.25   22.30
 -16  16 -18  463.15   22.10
 -16  18 -16  463.75   22.30
 -18   0 -18  660.23   27.60
 -18  18   0  648.94   26.90
 -18   2 -18  331.47   16.40
 -18  18  -2  319.97   15.60
 -18  18   2  323.57   15.10
  -2  18 -18  339.77   15.90
 -18   4 -18    4.30    3.60
 -18  18  -4    2.50    3.10
 -18  18   4    0.50    2.80
  -4  18 -18    0.50    3.10
 -18   6 -18   71.19    8.10
 -18  18  -6   60.69    6.70
  -6  18 -18   58.29    7.20
 -18   8 -18  471.45   23.20
 -18  18  -8  474.15   21.70
  -8  18 -18  467.65   21.60
 -18  10 -18  196.48   12.30
 -18  18 -10  188.28   15.10
 -10  18 -18  208.48   12.70
 -18  12 -18    4.40    4.10
 -18  18 -12   -8.20    4.20
 -12  18 -18    7.80    4.30
 -18  14 -18   25.50    5.50
 -18  18 -14   30.50    5.90
 -14  18 -18   25.90    5.50
 -18  16 -18  259.07   15.80
 -18  18 -16  252.07   15.60
 -16  18 -18  252.17   15.40
 -18  18 -18  220.58   15.30
 -19  -1  -1  822.72   31.50
 -19   1  -1  796.12   31.30
 -19   1   1  813.32   31.20
  19   1  -1  758.92   30.30
 -19  -1  -3    6.40    2.50
 -19   1   3    4.90    1.70
 -19   3  -1    4.30    1.90
  -3   1 -19    6.20    1.70
  19   1  -3    7.20    1.70
 -19   1  -3    4.30    2.10
 -19   3   1    4.50    2.00
  -3   3 -19  596.34   22.50
 -19   3  -3  571.34   23.60
 -19   3   3  579.94   23.00
  19   3  -3  565.24   22.40
 -19  -1  -5    5.90    2.40
 -19   1   5   10.70    2.10
 -19   5  -1    4.20    1.90
  -5   1 -19    4.80    1.60
  -1   5 -19    4.40    1.50
 -19   5   1    5.40    2.00
 -19   1  -5    1.80    2.00
 -19   3   5  449.46   18.10
 -19   5  -3  433.76   18.70
  19   3  -5  449.16   17.40
  -5   3 -19  440.46   17.90
  -3   5 -19  434.96   17.90
 -19   3  -5  449.86   19.00
 -19   5   3  452.45   18.20
  -5   5 -19  403.36   16.60
  19   5  -5  384.66   16.10
 -19   5   5  412.96   16.60
 -19   5  -5  403.26   17.40
  -7   1 -19  259.07   11.50
 -19   7  -1  256.77   11.90
 -19  -1  -7  251.97   12.70
   1   7 -19  264.07   11.10
 -19   7   1  261.07   11.70
  -1   7 -19  260.17   11.30
 -19   1  -7  265.47   12.60
 -19   7  -3   57.99    5.00
  19   3  -7   58.49    3.50
   3   7 -19   60.79    3.80
  -7   3 -19   58.39    4.60
  -3   7 -19   59.39    4.50
 -19   7   3   57.29    4.50
 -19   3  -7   61.29    5.50
 -19   5   7   25.80    3.60
  19   5  -7   20.40    2.40
 -19   7  -5   21.00    3.40
  -7   5 -19   23.00    3.10
  -5   7 -19   18.30    2.80
 -19   5  -7   22.20    3.50
 -19   7   5   20.90    2.70
  -7   7 -19  184.08    9.30
   7   7 -19  179.68    7.20
  19   7  -7  169.08   10.10
 -19   7  -7  190.78   10.10
 -19  -1  -9  310.97   14.60
  -9   1 -19  305.87   13.40
 -19   9  -1  310.07   13.70
   1   9 -19  302.17   12.90
 -19   1  -9  300.27   14.30
  -1   9 -19  286.97   13.00
 -19   9   1  300.47   13.30
  -9   3 -19    1.60    2.00
   3   9 -19    1.40    1.50
 -19   9  -3    0.80    2.10
 -19   9   3    1.50    1.90
  -3   9 -19    1.50    1.90
 -19   3  -9    2.00    2.40
  -9   5 -19   13.00    2.90
   5   9 -19   17.60    2.20
 -19   9  -5   17.40    3.30
  19   5  -9   19.10    2.50
  -5   9 -19   20.40    3.00
 -19   9   5   18.20    2.50
 -19   5  -9   18.30    3.30
   7   9 -19  334.97   13.20
 -19   9  -7  323.77   15.20
  -9   7 -19  329.77   14.90
 -19   7  -9  325.07   15.40
  -7   9 -19  324.67   14.80
 -19   9  -9  474.15   21.10
  -9   9 -19  493.45   20.70
   1  11 -19    7.50    2.10
 -11   1 -19    1.70    2.10
 -19  11  -1    7.40    2.50
 -19  -1 -11    6.00    3.20
 -19  11   1    6.50    2.30
 -19   1 -11    3.40    2.90
  -1  11 -19    5.20    2.10
 -11   3 -19  420.36   18.10
   3  11 -19  414.46   17.20
 -19  11  -3  427.36   18.20
 -19   3 -11  418.16   18.70
 -19  11   3  424.66   17.40
  -3  11 -19  398.36   17.70
 -11   5 -19  198.68   10.50
   5  11 -19  200.48    9.30
 -19  11  -5  202.08   10.80
 -19   5 -11  208.88   11.30
 -19  11   5  206.18    9.70
  -5  11 -19  194.98   10.40
 -19  11  -7   -1.00    2.60
 -11   7 -19    1.70    2.50
   7  11 -19    1.80    1.70
 -19  11   7   -1.10    2.00
  -7  11 -19   -0.60    2.40
 -19   7 -11    0.10    2.60
   9  11 -19   25.40    3.20
 -11   9 -19   28.60    4.00
 -19  11  -9   23.30    4.30
 -19   9 -11   21.30    3.70
  -9  11 -19   17.50    3.50
 -19  11 -11   41.30    5.40
 -11  19 -11   31.70    4.90
  11  11 -19   26.90    3.40
 -11  11 -19   31.20    4.40
 -13   1 -19   13.50    3.30
 -19  13  -1   15.20    3.10
 -19  -1 -13   16.50    3.20
   1  13 -19   14.10    2.90
 -19  13   1   11.50    2.70
 -19   1 -13   13.50    3.30
  -1  13 -19   14.80    2.90
   3  13 -19  534.25   21.80
 -19  13  -3  542.45   22.60
 -13   3 -19  531.15   22.60
 -19   3 -13  540.05   23.20
 -19  13   3  526.75   21.70
  -3  13 -19  529.85   22.30
 -13   5 -19  392.26   17.90
 -19  13  -5  389.56   17.80
   5  13 -19  396.26   16.70
 -19  13   5  401.66   16.70
  -5  13 -19  393.16   17.60
 -19   5 -13  406.96   18.50
 -19  13  -7    5.90    3.10
   7  13 -19    8.20    2.50
 -13   7 -19    9.90    2.90
 -19  13   7   12.50    4.00
 -19   7 -13    9.30    3.30
  -7  13 -19   11.70    3.40
  -9  19 -13   -1.20    3.00
 -13   9 -19   -1.60    2.80
   9  13 -19   -0.60    2.10
 -19  13  -9    3.00    3.00
  -9  13 -19    0.50    2.80
 -13  19  -9   -0.80    3.10
 -19   9 -13    0.70    3.20
 -11  19 -13  216.78   12.30
 -13  11 -19  218.48   12.10
 -19  13 -11  227.58   12.70
  11  13 -19  224.68    9.80
 -19  11 -13  215.48   12.60
 -11  13 -19  213.38   11.90
 -13  19 -11  222.18   12.40
  13  11 -19  185.28    9.40
 -13  13 -19  285.17   15.20
 -19  13 -13  293.87   15.50
 -13  19 -13  294.17   15.50
  13  13 -19  295.07   12.30
   1  15 -19   62.59    6.00
 -19  15  -1   65.59    6.10
 -15   1 -19   68.69    7.00
 -19   1 -15   71.49    7.20
  -1  15 -19   70.19    6.40
 -19  15   1   68.89    5.90
 -15   3 -19   67.89    6.80
   3  15 -19   79.79    6.30
 -19  15  -3   70.59    6.70
 -19  15   3   68.39    5.90
 -19   3 -15   76.19    7.50
  -3  15 -19   81.29    6.60
 -15   5 -19   23.90    4.30
   5  15 -19   24.10    3.40
 -19  15  -5   19.10    4.20
 -19  15   5   20.60    3.10
  -5  15 -19   21.10    4.10
 -19   5 -15   17.60    4.10
  -7  19 -15   40.10    5.20
 -19  15  -7   28.40    4.70
 -15   7 -19   34.20    5.00
 -15  19  -7   44.60    5.40
 -19   7 -15   36.60    5.20
  -7  15 -19   32.80    4.70
  -9  19 -15  113.29    9.00
 -19  15  -9  120.19    9.30
 -15   9 -19  112.39    8.80
 -15  19  -9  112.19    9.30
 -19   9 -15  120.79    9.30
  -9  15 -19  106.79    8.70
 -15  11 -19   15.30    4.20
 -11  19 -15   14.40    4.70
 -19  15 -11   19.70    4.90
 -19  11 -15   22.60    5.60
 -15  19 -11   14.60    4.30
 -11  15 -19   11.20    4.10
 -13  19 -15  100.29    9.50
 -19  15 -13   93.09    9.80
 -15  13 -19   89.99    9.00
 -19  13 -15   97.29    9.30
 -15  19 -13   88.99    9.40
 -13  15 -19  103.09    9.20
 -15  15 -19   22.20    5.40
 -19  15 -15   21.70    5.40
 -15  19 -15   13.00    4.80
 -17   1 -19  366.26   18.00
 -19  17  -1  359.66   17.10
   1  17 -19  380.46   17.20
 -19   1 -17  396.06   18.60
 -19  17   1  376.86   16.90
 -17  19  -1  393.86   17.30
  -1  17 -19  368.56   17.20
 -19  17  -3   26.80    4.40
 -17   3 -19   24.00    4.40
 -19  17   3   25.40    4.00
 -19   3 -17   32.80    5.00
 -17  19  -3   28.30    4.50
  -3  17 -19   32.20    4.70
  -5  19 -17   -5.00    3.20
 -17   5 -19    4.40    3.40
 -19  17  -5   -1.10    3.20
 -19   5 -17    0.40    3.30
 -19  17   5   -3.50    2.50
 -17  19  -5    1.80    3.30
  -5  17 -19    1.00    3.00
  -7  19 -17  184.58   11.80
 -17   7 -19  197.48   12.00
 -19  17  -7  189.48   11.70
 -19   7 -17  197.18   12.40
 -17  19  -7  199.28   11.90
  -7  17 -19  177.48   11.30
 -19  17  -9  355.16   17.30
 -17  19  -9  337.77   17.20
 -19   9 -17  315.07   22.10
 -11  19 -17   18.70    4.80
 -17  11 -19   10.70    4.40
 -19  17 -11    8.30    4.70
 -17  19 -11   14.40    5.10
 -19  11 -17   14.70    5.10
 -11  17 -19   13.30    4.50
 -19  17 -13    2.40    4.80
 -17  13 -19   -3.90    4.50
 -13  19 -17   -0.40    4.30
 -17  19 -13   11.90    4.90
 -13  17 -19    0.10    4.40
 -19  13 -17    5.10    4.50
 -17  15 -19   90.89   10.20
 -19  17 -15   86.99   10.70
 -15  19 -17   89.49   10.40
 -17  19 -15   83.69   10.70
 -15  17 -19   83.49    9.80
 -19  15 -17   84.19   10.00
 -19  17 -17  202.28   14.90
 -17  17 -19  240.28   15.10
 -17  19 -17  207.58   14.90
 -19   1 -19   92.39    8.00
 -19  19  -1   74.99    7.40
 -19  19   1   77.09    7.30
  -1  19 -19   80.49    7.60
 -19   3 -19   84.89   11.30
 -19  19  -3   77.49    8.00
 -19  19   3   81.29    6.90
  -3  19 -19   77.79    7.90
 -19   5 -19   42.30    6.90
 -19  19  -5   65.99    7.70
 -19  19   5   63.89    6.10
 -19   7 -19    2.50    4.10
 -19  19  -7    1.60    4.20
  -7  19 -19    1.70    3.90
 -19   9 -19   12.70    5.10
 -19  19  -9   23.20    5.30
  -9  19 -19   23.00    5.20
 -19  11 -19   53.59    7.00
 -19  19 -11   47.50    6.80
 -11  19 -19   50.29    6.70
 -19  13 -19   86.69   10.30
 -19  19 -13   85.59   10.50
 -13  19 -19   79.49    8.40
 -19  15 -19  -13.30    4.90
 -19  19 -15   -4.40    5.10
 -15  19 -19   -0.10    5.20
 -19  17 -19   59.09    8.30
 -19  19 -17   60.89    8.30
 -17  19 -19   57.09    7.70
 -19  19 -19   -0.70    6.50
 -20   0   0 1172.08   45.00
 -20   0  -2    0.60    2.20
 -20   0   2    6.80    2.10
 -20   2   0    2.90    2.00
 -20   2  -2  134.59    8.00
 -20   2   2  143.79    7.70
  20   2  -2  137.89    7.00
 -20   0  -4  137.89    8.10
 -20   4   0  127.99    7.40
  20   2  -4  572.44   22.50
  -4   2 -20  590.94   22.90
 -20   4  -2  598.84   24.10
 -20   2   4  599.54   23.60
 -20   2  -4  585.44   24.30
 -20   4   2  574.54   23.60
  -2   4 -20  593.04   22.80
  -4   4 -20 1328.87   47.90
 -20   4  -4 1286.37   49.00
 -20   4   4 1261.37   48.10
  20   4  -4 1218.08   48.20
 -20   0  -6   61.29    5.70
 -20   6   0   54.69    4.80
   0   6 -20   52.49    3.80
 -20   6  -2   82.09    6.10
 -20   2   6   95.59    5.80
  -6   2 -20   84.29    5.40
   2   6 -20   84.89    5.00
  -2   6 -20   80.19    5.10
 -20   6   2   87.19    5.60
 -20   2  -6   84.89    6.50
  -6   4 -20  626.54   24.20
 -20   6  -4  593.74   24.80
 -20   4   6  601.34   24.00
  20   4  -6  608.54   23.20
 -20   4  -6  618.64   25.20
 -20   6   4  595.54   24.10
  -4   6 -20  595.74   24.00
  20   6  -6  115.09    7.30
  -6   6 -20  141.19    7.40
 -20   6   6  131.69    7.10
  -6   6  20  132.19    6.80
 -20   6  -6  136.49    8.30
   0   8 -20  138.29    7.10
 -20   0  -8  132.99    8.60
 -20   8   0  140.49    7.80
   2   8 -20   -0.60    1.50
 -20   8  -2    1.80    2.00
  -8   2 -20    3.30    2.00
 -20   2  -8    1.20    2.30
 -20   8   2    3.50    1.90
  -2   8 -20    0.90    1.80
 -20   8  -4  147.99    8.70
  -8   4 -20  151.98    8.20
 -20   4   8  144.99    7.70
  20   4  -8  151.78    6.60
   4   8 -20  155.68    7.00
 -20   8   4  146.89    7.80
 -20   4  -8  147.09    9.00
  -4   8 -20  152.38    8.10
  -8   6 -20   24.20    3.20
 -20   8  -6   18.70    3.60
 -20   6  -8   21.70    3.90
 -20   8   6   24.90    3.00
  -6   8 -20   24.70    3.50
  -8   8 -20  197.48   10.40
 -20   8  -8  208.98   11.30
   0  10 -20   12.60    2.50
 -20  10   0   13.80    2.80
 -10   0 -20   17.50    2.80
 -20   0 -10   11.80    3.30
   2  10 -20  139.39    7.40
 -10   2 -20  143.59    8.10
 -20  10  -2  140.19    8.30
 -20   2 -10  143.69    9.10
  -2  10 -20  141.69    7.80
 -20  10   2  135.69    7.80
 -10   4 -20  418.86   18.20
   4  10 -20  413.96   17.10
 -20  10  -4  399.06   18.40
 -20   4 -10  461.05   19.40
 -20  10   4  423.96   17.70
  -4  10 -20  426.16   18.00
   6  10 -20   60.49    4.20
 -20  10  -6   54.89    6.20
 -10   6 -20   54.69    5.70
 -20   6 -10   50.19    6.30
 -20  10   6   61.29    4.80
  -6  10 -20   62.39    5.50
 -20  10  -8    4.00    3.10
 -10   8 -20   10.00    3.10
   8  10 -20    6.50    1.80
 -20  10   8    8.00    2.30
 -20   8 -10    2.50    2.90
  -8  10 -20    3.80    2.80
 -10  10 -20    3.10    3.00
  10  10 -20    6.40    1.50
 -20  10 -10    4.70    3.00
 -12   0 -20   87.49    6.20
   0  12 -20   76.59    5.90
 -20   0 -12   71.59    7.40
 -20  12   0   80.59    6.30
   2  12 -20  551.04   22.40
 -12   2 -20  548.75   23.20
 -20  12  -2  581.44   23.30
  -2  12 -20  547.45   22.80
 -20   2 -12  555.64   24.00
 -20  12   2  539.65   22.60
 -20  12  -4 1199.48   46.70
   4  12 -20 1209.78   45.50
 -12   4 -20 1186.68   46.50
  -4  12 -20 1207.28   46.30
 -20  12   4 1209.38   45.70
 -20   4 -12 1192.08   47.30
 -20  12  -6  345.77   16.40
   6  12 -20  336.07   14.60
 -12   6 -20  350.46   16.10
 -20   6 -12  354.66   16.80
 -20  12   6  348.67   14.90
  -6  12 -20  346.27   16.00
   8  12 -20   49.40    4.50
 -20  12  -8   51.59    6.00
 -12   8 -20   52.99    6.30
 -20   8 -12   48.90    5.70
  -8  12 -20   60.49    6.20
 -20  12   8   51.39    4.90
 -12  10 -20  215.58   12.00
 -20  12 -10  197.38   12.40
  10  12 -20  224.58    9.80
 -10  12 -20  232.58   12.30
 -20  10 -12  240.08   12.80
 -20  12 -12  619.44   26.50
  12  12 -20  598.14   23.00
 -12  20 -12  605.94   26.30
 -12  12 -20  589.74   25.90
 -20   0 -14    3.10    3.90
 -20  14   0    7.00    2.90
   0  14 -20    1.00    2.70
   2  14 -20  257.87   12.10
 -20  14  -2  258.87   12.80
 -14   2 -20  251.17   12.90
 -20   2 -14  248.08   13.50
  -2  14 -20  247.08   12.50
 -20  14   2  247.48   12.10
 -14   4 -20  614.04   26.20
   4  14 -20  628.04   25.20
 -20  14  -4  617.54   26.20
 -20  14   4  622.74   25.20
  -4  14 -20  617.44   25.90
 -20   4 -14  642.04   26.90
   6  14 -20   56.39    5.60
 -20  14  -6   75.09    7.30
 -14   6 -20   69.39    7.10
  -6  14 -20   66.59    6.80
 -20   6 -14   58.29    7.40
 -20  14  -8    3.40    3.30
   8  14 -20   -2.60    2.40
 -14   8 -20   -2.90    3.10
  -8  14 -20    2.10    3.20
 -14  20  -8    0.20    3.50
 -20   8 -14    2.30    3.50
  10  14 -20   73.39    6.00
 -20  14 -10   89.49    8.60
 -14  10 -20   82.79    8.00
 -10  20 -14   90.69    8.30
 -10  14 -20   91.29    7.90
 -20  10 -14   96.49    8.90
 -14  20 -10   66.59    8.20
 -12  20 -14  507.65   23.10
  12  14 -20  482.35   19.00
 -20  12 -14  415.06   23.50
 -20  14 -14  184.18   12.80
 -14  20 -14  186.48   12.70
 -14  14 -20  192.58   12.50
   0  16 -20  109.39    8.10
 -20   0 -16  118.09    8.80
 -20  16   0  111.69    8.00
 -16   2 -20   -4.30    3.20
   2  16 -20    3.00    2.90
 -20  16  -2   -3.30    3.10
 -20  16   2    2.90    2.80
 -20   2 -16    4.60    3.50
  -2  16 -20    4.30    3.10
   4  16 -20   67.29    6.20
 -20  16  -4   67.19    7.10
 -16   4 -20   84.09    7.60
 -20  16   4   54.09    5.90
  -4  16 -20   69.89    7.00
 -20   4 -16   65.89    7.80
 -16  20  -4   61.69    7.00
   6  16 -20    4.30    3.00
 -16   6 -20    2.20    3.50
  -6  20 -16    2.80    3.60
 -20  16  -6    4.30    3.90
 -20   6 -16    5.90    3.90
 -16  20  -6    1.60    3.70
  -6  16 -20    1.80    3.20
 -16   8 -20  121.59    9.50
   8  16 -20  124.89    7.90
 -20  16  -8  118.79    9.70
  -8  16 -20  111.79    9.10
 -16  20  -8  106.39    9.20
 -16  10 -20    5.50    4.70
 -10  20 -16    8.70    4.20
  10  16 -20    7.50    3.30
 -20  10 -16    6.80    4.20
 -10  16 -20    9.60    5.10
  12  16 -20  104.19    7.40
 -12  20 -16  120.09   10.00
 -20  16 -12  115.69   10.60
 -16  12 -20  113.49   10.20
 -20  12 -16  110.49   10.50
 -16  20 -12  113.39   10.30
 -12  16 -20  104.49    9.80
 -20  16 -14   12.30    5.20
 -16  14 -20    6.50    4.60
 -14  20 -16    5.80    4.70
 -16  20 -14   13.70    5.30
 -14  16 -20   -2.00    4.60
 -20  14 -16   10.10    4.90
 -16  16 -20   32.70    6.20
 -20  16 -16   30.80    6.50
 -16  20 -16   38.90    6.80
 -18  20   0  127.29    8.90
 -20  18   0  129.29    8.90
   0  18 -20  119.89    8.90
 -18  20   2    0.90    3.20
 -18   2 -20    4.10    3.80
 -20  18  -2    5.30    3.70
   2  18 -20    1.60    3.30
 -20   2 -18   -7.50    5.90
 -20  18   2    6.10    3.40
  -2  18 -20    2.40    3.60
 -18  20  -2    4.90    3.50
 -18   4 -20   87.39   11.60
   4  18 -20   93.79    7.90
 -20  18  -4   97.19    8.80
 -20   4 -18   77.69   10.10
 -18  20  -4   95.79    8.60
  -4  18 -20   95.29    8.60
 -20  18   4  111.69    7.50
  -6  20 -18   -6.20    3.70
 -20  18  -6    6.20    3.80
 -18   6 -20    1.40    4.00
 -18  20  -6   -0.20    3.70
 -20   6 -18   -2.40    3.90
  -8  20 -18   51.99    6.30
 -18   8 -20   64.79    7.20
  -8  18 -20   54.09    6.50
 -20   8 -18   46.70    6.70
 -18  20  -8   49.40   10.30
 -18  10 -20   -6.80    4.20
 -20  18 -10   -1.90    4.60
 -10  20 -18   -4.90    4.30
 -18  20 -10    6.10    4.70
 -20  10 -18    6.60    4.70
 -10  18 -20   -3.60    4.20
 -18  12 -20  109.19   10.60
 -20  18 -12   83.59   10.40
 -12  20 -18   82.49   10.10
 -20  12 -18   85.89   10.20
 -12  18 -20   99.89    9.90
 -18  20 -12  112.49   10.80
 -20  18 -14   24.30    5.80
 -14  20 -18   19.60    6.10
 -18  14 -20   31.00    6.10
 -18  20 -14   21.20    6.00
 -14  18 -20   25.50    5.70
 -20  14 -18   20.30    5.80
 -18  16 -20   33.40    6.90
 -20  18 -16   24.20    6.20
 -16  20 -18   33.20    6.80
 -18  20 -16   29.20    6.70
 -16  18 -20   29.40    6.60
 -20  16 -18   37.90    6.90
 -20  18 -18   38.60    7.50
 -18  18 -20   33.20    7.40
 -18  20 -18   34.70    8.00
 -20  20   0   -0.60    3.80
   0  20 -20    4.10    4.10
 -20   2 -20  164.78   11.20
 -20  20  -2  149.59   10.50
 -20  20   2  153.48    9.80
  -2  20 -20  139.69   10.50
 -20   4 -20  506.85   24.20
 -20  20  -4  549.95   24.00
 -20  20   4  506.75   22.50
  -4  20 -20  538.55   23.90
 -20   6 -20  169.38   12.50
 -20  20  -6  167.38   12.00
 -20  20   6  164.88   11.00
  -6  20 -20  164.18   11.50
 -20   8 -20   42.00    6.90
 -20  20  -8   60.79    7.40
  -8  20 -20   58.59    7.10
 -20  10 -20  223.48   14.90
 -20  20 -10  229.28   15.00
 -10  20 -20  231.48   14.40
 -20  12 -20  484.45   24.20
 -20  20 -12  513.25   24.30
 -12  20 -20  482.35   23.80
 -20  14 -20  175.48   14.10
 -20  20 -14  171.18   14.10
 -14  20 -20  179.38   14.20
 -20  16 -20   -3.20    6.20
 -20  20 -16   22.60    7.10
 -16  20 -20   11.20    6.60
 -20  18 -20  -11.60    6.50
 -20  20 -18    9.60    7.30
 -18  20 -20   -0.70    7.00
 -21   1  -1   28.30    3.80
 -21   1   1   28.30    3.80
 -21  -1  -3  252.07   12.30
 -21   1   3  264.17   12.20
 -21   3  -1  236.18   12.00
 -21   1  -3  249.68   12.30
 -21   3   1  262.57   12.10
  -3   3 -21  792.32   29.70
 -21   3  -3  796.82   31.20
 -21   3   3  806.92   30.70
  21   3  -3  712.83   32.00
 -21  -1  -5  168.68    9.60
 -21   5  -1  172.48    9.10
 -21   5   1  171.28    9.00
  -1   5 -21  161.38    7.80
 -21   1  -5  167.88    9.60
 -21   5  -3  938.91   36.10
  21   3  -5  811.52   34.60
   3   5 -21  910.71   33.60
 -21   3   5  935.41   35.40
  -5   3 -21  935.01   35.00
 -21   3  -5  934.31   36.30
 -21   5   3  909.91   35.50
  -3   5 -21  939.91   34.90
 -21   5   5 1105.39   42.60
  -5   5 -21 1128.89   42.50
 -21   5  -5 1119.39   43.60
  -7   1 -21   54.29    4.40
 -21  -1  -7   55.89    5.90
   1   7 -21   46.30    3.80
 -21   7  -1   46.00    5.00
  -1   7 -21   41.10    4.10
 -21   1  -7   61.99    5.90
 -21   7   1   45.50    4.80
   3   7 -21  207.78    8.60
 -21   7  -3  197.78   10.50
 -21   3   7  197.98    9.70
  -7   3 -21  202.78    9.70
  -3   7 -21  190.98    9.50
 -21   3  -7  195.98   11.00
 -21   7   3  189.58    9.80
 -21   7  -5  249.08   12.60
  -7   5 -21  260.17   11.80
 -21   5   7  249.78   11.50
  -5   7 -21  237.78   11.60
 -21   7   5  263.47   11.60
 -21   5  -7  245.18   12.80
 -21   7   7   14.30    2.70
 -21   7  -7   12.10    3.50
  -7   7 -21   19.80    3.30
   1   9 -21    2.00    1.90
 -21  -1  -9    1.30    2.60
  -9   1 -21    4.00    2.30
 -21   9  -1    5.70    2.50
 -21   1  -9   -2.40    2.70
  -1   9 -21    0.60    2.00
 -21   9   1    6.50    2.40
   3   9 -21  221.98   10.00
  -9   3 -21  222.98   11.00
 -21   9  -3  229.38   11.50
  -3   9 -21  221.68   10.80
 -21   9   3  236.88   11.00
 -21   3  -9  236.38   12.40
 -21   9  -5  164.38    9.90
  -9   5 -21  166.68    9.40
 -21   5   9  174.28    8.80
   5   9 -21  178.78    7.90
 -21   5  -9  179.68   10.40
  -5   9 -21  168.88    9.20
 -21   9   5  173.18    8.90
 -21   9  -7   -0.90    2.90
  -9   7 -21    1.60    2.60
 -21   7   9    4.30    2.10
 -21   9   7    1.70    2.10
  -7   9 -21    9.00    2.70
 -21   7  -9    1.70    3.10
 -21   9  -9    5.20    3.40
 -21   9   9   10.60    2.50
  -9   9 -21    6.50    2.80
 -11   1 -21  126.49    7.90
 -21  11  -1  124.39    7.90
 -21  -1 -11  123.09    8.60
   1  11 -21  122.99    7.00
 -21  11   1  115.79    7.60
  -1  11 -21  118.79    7.30
 -21   1 -11  126.19    9.00
   3  11 -21  795.12   31.30
 -11   3 -21  819.82   32.40
 -21  11  -3  811.42   32.60
 -21  11   3  809.52   31.90
 -21   3 -11  814.42   33.40
  -3  11 -21  814.62   32.00
 -11   5 -21  653.23   27.20
 -21  11  -5  656.63   27.50
   5  11 -21  655.53   25.70
 -21  11   5  670.63   26.30
 -21   5 -11  651.43   27.90
  -5  11 -21  672.63   26.90
   7  11 -21   82.19    5.20
 -11   7 -21   78.99    7.00
 -21  11  -7   88.09    7.60
  -7  11 -21   83.49    6.80
 -21   7 -11   81.49    7.90
   9  11 -21   55.29    4.00
 -21  11  -9   41.90    5.70
 -11   9 -21   55.69    6.40
 -21   9 -11   60.29    7.20
  -9  11 -21   51.69    6.30
 -11  11 -21  194.78   11.10
 -21  11 -11  205.38   12.10
 -21  11  11  169.98   10.00
   1  13 -21  205.68   10.50
 -13   1 -21  217.88   11.40
 -21  13  -1  211.78   11.30
 -21  13   1  211.28   10.90
  -1  13 -21  216.08   10.90
 -21   1 -13  212.58   12.40
 -13   3 -21 1037.00   40.10
 -21  13  -3 1011.40   40.00
   3  13 -21 1013.80   38.90
 -21   3 -13 1013.00   40.80
 -21  13   3  974.50   39.20
  -3  13 -21 1017.50   39.60
   5  13 -21  788.72   31.40
 -13   5 -21  827.32   32.90
 -21  13  -5  799.22   33.00
 -21   5 -13  811.52   33.60
  -5  13 -21  809.22   32.60
 -21  13   5  817.42   31.80
 -21  13  -7   97.09    8.60
   7  13 -21   99.69    6.30
 -13   7 -21  103.29    8.20
 -21   7 -13   87.49    8.80
  -7  13 -21   99.89    7.70
 -13   9 -21  130.99    9.10
 -21  13  -9  131.99    9.70
   9  13 -21  134.09    7.10
 -21   9 -13  119.39    9.60
  -9  13 -21  115.89    9.00
 -13  11 -21  547.05   23.80
  11  13 -21  528.05   20.60
 -21  13 -11  516.25   24.30
 -13  21 -11  488.95   26.60
 -11  13 -21  538.55   23.40
 -13  13 -21  676.43   28.90
 -21  13 -13  659.73   29.30
 -13  21 -13  668.53   29.30
 -15   1 -21   15.10    3.70
   1  15 -21   11.00    3.10
 -21  15  -1   11.10    3.50
 -21  15   1    7.90    3.20
  -1  15 -21   10.00    3.30
 -21   1 -15   -1.20    3.80
 -21  15  -3  288.77   14.30
 -15   3 -21  266.67   14.10
   3  15 -21  281.27   13.30
 -21   3 -15  283.07   15.00
 -21  15   3  268.27   13.30
  -3  15 -21  280.57   13.80
   5  15 -21  163.08    9.30
 -15   5 -21  169.38   10.70
 -21  15  -5  163.28   10.60
 -21   5 -15  167.18   11.20
  -5  15 -21  166.68   10.30
 -21  15   5  162.08    9.10
 -21  15  -7    0.00    3.40
   7  15 -21    5.40    2.90
 -15   7 -21    0.40    3.40
 -21   7 -15   -5.30    5.80
 -15  21  -7   -2.30    3.60
  -7  15 -21   -2.40    3.40
  -9  21 -15   -6.70    3.60
   9  15 -21    4.60    2.90
 -21  15  -9    1.50    4.00
 -21   9 -15   -0.60    4.10
 -15  21  -9    0.70    4.30
  -9  15 -21    2.60    4.10
 -11  21 -15  177.88   11.90
 -15  11 -21  167.98   11.50
  11  15 -21  152.58    8.60
 -21  15 -11  152.28   11.40
 -21  11 -15  163.48   11.90
 -15  21 -11  158.28   11.60
 -11  15 -21  147.29   11.00
 -13  21 -15  303.37   17.00
 -21  15 -13  298.97   17.10
 -15  13 -21  315.37   16.80
 -21  13 -15  306.47   17.20
 -13  15 -21  320.87   16.80
 -15  21 -13  327.67   17.40
 -15  21 -15   23.90    6.00
 -21  15 -15   20.00    5.90
 -15  15 -21   25.20    5.80
   1  17 -21   36.70    4.80
 -21  17  -1   38.60    5.10
 -21  17   1   35.80    4.80
  -1  17 -21   39.00    5.00
 -17   3 -21    1.90    4.10
 -21  17  -3   10.60    4.00
   3  17 -21   10.00    3.70
  -3  17 -21   11.60    3.70
 -21   3 -17   10.40    5.20
 -17  21  -3    8.90    3.70
 -21  17   3    7.40    3.40
  -5  21 -17   74.59    8.30
 -21  17  -5   73.79    8.40
   5  17 -21   79.19    7.20
 -21  17   5   75.09    6.80
 -17  21  -5   88.39    8.20
  -5  17 -21   85.49    8.10
 -21   5 -17   72.59    9.00
   7  17 -21   27.20    4.20
 -21  17  -7   27.60    5.40
  -7  21 -17   29.20    5.40
 -17   7 -21   30.70    5.40
 -17  21  -7   23.40    6.40
  -7  17 -21   19.20    4.80
 -21   7 -17   27.90    5.30
  -9  21 -17   51.99    6.80
   9  17 -21   61.39    6.60
 -17   9 -21   52.89    6.60
 -21  17  -9   65.09    8.60
 -21   9 -17   42.80    6.20
  -9  17 -21   42.00    6.00
 -17  21  -9   46.60    6.50
 -11  21 -17   21.90    5.30
 -21  17 -11   12.30    5.20
  11  17 -21   20.60    3.90
 -17  11 -21   23.00    5.50
 -17  21 -11   30.40    5.90
 -11  17 -21   16.70    5.20
 -21  11 -17   15.70    5.40
 -13  21 -17   89.89   10.60
 -21  17 -13   83.99   10.80
 -17  13 -21  108.89   10.50
 -17  21 -13  102.49   10.60
 -13  17 -21   95.69   10.10
 -21  13 -17   95.79   10.80
 -17  15 -21   -6.20    5.00
 -21  17 -15   -4.60    5.30
 -15  21 -17   -1.10    5.50
 -17  21 -15   -0.30    5.40
 -21  15 -17    4.10    5.70
 -15  17 -21    1.10    5.20
 -21  17 -17   69.29    8.80
 -17  21 -17   62.69    8.30
 -17  17 -21   63.49    8.20
 -21  19  -1    1.70    3.80
  -1  21 -19    2.80    3.90
 -19  21   1    0.70    3.50
   1  19 -21   -0.30    4.60
 -21  19   1   -0.70    3.60
  -1  19 -21  -11.60    4.90
 -19  21  -1    5.30    3.80
  -3  21 -19  210.78   12.80
 -19   3 -21  204.68   13.70
 -19  21   3  202.78   11.70
 -21  19  -3  221.08   12.90
   3  19 -21  204.58   12.00
 -21  19   3  197.48   11.80
  -3  19 -21  230.08   13.00
 -19  21  -3  234.58   13.10
 -21   3 -19  206.28   14.00
  -5  21 -19  178.38   12.40
 -19  21   5  193.58   10.90
 -19   5 -21  189.68   12.80
   5  19 -21  189.58   11.30
 -21  19   5  200.08   11.10
 -21   5 -19  191.48   13.10
  -5  19 -21  197.28   12.30
 -19   7 -21   16.50    5.50
  -7  21 -19   22.70    5.20
   7  19 -21   13.70    4.10
 -19  21   7   10.80    4.90
 -21  19  -7   11.70    5.20
 -21   7 -19   14.30    5.40
  -7  19 -21   11.20    4.90
 -19  21  -7   16.80    5.40
 -21  19  -9   21.20    5.70
  -9  21 -19   15.90    5.50
   9  19 -21   17.30    4.40
 -19   9 -21   19.30    5.50
 -19  21  -9   19.30    5.50
 -21   9 -19   13.50    5.40
  -9  19 -21   12.00    5.10
 -19  11 -21  201.78   14.40
 -11  21 -19  206.38   14.20
  11  19 -21  202.58   11.70
 -21  19 -11  229.58   14.70
 -21  11 -19  214.58   14.70
 -11  19 -21  203.78   13.90
 -19  21 -11  200.38   14.10
 -13  21 -19  233.58   15.90
 -21  19 -13  220.48   15.40
 -19  13 -21  242.28   15.90
 -13  19 -21  255.27   15.60
 -19  21 -13  246.28   16.00
 -21  13 -19  226.68   15.80
 -21  19 -15   34.10    6.90
 -19  15 -21   31.60    6.90
 -15  21 -19   28.70    6.90
 -19  21 -15   29.40    6.90
 -15  19 -21   40.90    7.30
 -21  15 -19   20.70    6.90
 -19  17 -21  -14.30    6.50
 -17  21 -19   -8.30    6.40
 -21  19 -17    1.20    6.70
 -17  19 -21   -4.90    6.60
 -21  17 -19   -8.20    6.30
 -19  21 -17    1.40    6.80
 -21  19 -19   29.60    8.20
 -19  19 -21   33.40    7.80
 -19  21 -19   10.30    7.30
 -21  21  -1  235.18   14.70
 -21  21   1  217.48   13.20
  -1  21 -21  233.98   13.90
   1  21 -21  234.28   13.50
 -21   3 -21  881.31   37.00
 -21  21  -3  900.91   36.40
 -21  21   3  873.51   35.40
  -3  21 -21  857.51   36.40
   3  21 -21  847.62   35.70
 -21   5 -21  870.01   36.30
 -21  21  -5  833.02   35.50
 -21  21   5  839.72   34.10
  -5  21 -21  828.42   35.40
   5  21 -21  842.12   34.50
 -21   7 -21  278.67   17.40
 -21  21  -7  319.67   17.50
  -7  21 -21  326.67   17.30
   7  21 -21  308.17   15.90
 -21   9 -21  399.96   20.80
 -21  21  -9  376.06   20.60
  -9  21 -21  405.16   20.50
 -21  11 -21  677.33   31.00
 -21  21 -11  658.03   30.60
 -11  21 -21  681.83   30.60
 -21  13 -21  623.84   29.80
 -21  21 -13  629.74   29.80
 -13  21 -21  645.04   29.60
 -21  15 -21  239.38   17.10
 -21  21 -15  235.18   17.20
 -15  21 -21  199.58   16.80
 -21  17 -21   41.60    8.70
 -21  21 -17   39.20    8.60
 -17  21 -21   60.49    9.00
 -22   0   0  683.43   27.70
 -22   0  -2    2.00    2.30
 -22   2   0   -3.90    2.20
 -22   2   2  104.69    7.00
 -22   2  -2   93.69    7.10
 -22   4   0   74.39    6.00
 -22   0  -4   72.19    7.00
 -22   4  -2  446.86   19.20
 -22   2   4  431.36   18.80
  -2   4 -22  440.96   17.50
 -22   4   2  438.26   18.80
 -22   2  -4  447.46   19.50
  -4   4 -22  950.40   36.30
 -22   4   4  965.80   37.10
 -22   4  -4  945.41   37.80
   0   6 -22   24.00    3.10
 -22   0  -6   14.60    3.90
 -22   6   0   25.10    3.70
 -22   6  -2   81.49    6.60
  -6   2 -22   88.19    5.90
 -22   2  -6   97.39    7.40
 -22   6   2   87.29    6.30
  -2   6 -22   86.39    5.50
 -22   6  -4  590.64   25.50
 -22   4   6  602.24   24.50
  -6   4 -22  620.54   24.40
 -22   6   4  615.34   24.70
  -4   6 -22  610.04   24.30
 -22   4  -6  619.84   25.70
 -22   6   6  322.67   14.10
  -6   6 -22  316.07   14.20
 -22   6  -6  314.07   15.30
 -22   0  -8  137.69    9.70
 -22   8   0  136.89    8.30
   0   8 -22  144.09    7.40
 -22   8  -2    5.00    2.80
   2   8 -22    3.60    1.80
  -8   2 -22    1.30    2.30
  -2   8 -22    1.20    2.10
 -22   8   2    2.90    2.40
 -22   2  -8    2.80    3.20
 -22   8  -4  123.89    8.50
  -8   4 -22  122.89    7.60
 -22   4   8  134.59    7.50
   4   8 -22  131.89    6.40
 -22   8   4  127.19    7.50
 -22   4  -8  126.39    8.90
  -4   8 -22  124.49    7.50
 -22   6   8    1.10    2.10
  -8   6 -22    1.60    2.60
 -22   8  -6   -0.70    2.90
 -22   6  -8    0.00    3.00
  -6   8 -22    1.80    2.40
 -22   8   6    2.70    2.30
  -8   8 -22  116.79    7.70
 -22   8  -8  108.49    8.70
 -22  10   0   42.50    5.30
 -22   0 -10   33.20    5.20
   0  10 -22   40.20    4.50
 -22  10  -2   70.19    6.20
   2  10 -22   57.59    4.80
 -10   2 -22   48.40    5.80
  -2  10 -22   52.79    5.30
 -22  10   2   63.39    5.60
 -22   2 -10   51.99    6.70
 -10   4 -22  263.67   13.10
 -22  10  -4  277.67   13.80
   4  10 -22  269.07   11.70
 -22  10   4  280.07   12.80
  -4  10 -22  268.17   12.90
 -22   4 -10  281.67   14.40
 -10   6 -22   80.59    6.80
 -22  10  -6   83.19    7.50
   6  10 -22   77.29    4.80
 -22  10   6   80.89    6.40
 -22   6 -10   74.29    7.50
  -6  10 -22   82.99    6.70
 -22  10  -8    2.00    3.40
   8  10 -22    6.40    2.70
 -10   8 -22    2.60    3.00
 -22   8 -10    5.10    3.50
  -8  10 -22    9.10    3.30
 -10  10 -22   -0.20    3.20
 -22  10 -10   -3.00    3.70
 -22   0 -12   12.30    3.90
 -22  12   0   11.10    3.30
   0  12 -22   10.00    2.80
 -22  12  -2  269.07   13.30
 -12   2 -22  253.97   13.20
   2  12 -22  247.08   12.00
 -22  12   2  265.47   12.70
  -2  12 -22  259.67   12.50
 -22   2 -12  270.67   14.20
   4  12 -22  710.93   27.80
 -12   4 -22  705.53   29.10
 -22  12  -4  711.63   29.50
 -22  12   4  721.83   28.60
 -22   4 -12  717.53   30.30
  -4  12 -22  695.13   28.80
 -12   6 -22  214.28   12.00
 -22  12  -6  206.78   12.10
   6  12 -22  216.88   10.00
 -22   6 -12  218.38   13.00
  -6  12 -22  216.08   11.50
 -22  12  -8    4.10    3.80
 -12   8 -22    9.50    3.70
   8  12 -22    8.40    2.30
  -8  12 -22    5.60    3.50
 -22   8 -12    4.70    4.00
 -22  12 -10   85.09    8.90
 -12  10 -22   86.59    7.90
 -22  10 -12   96.19   12.30
 -10  12 -22   77.19    7.80
 -12  22 -12  250.07   14.60
 -22  12 -12  283.07   15.10
 -12  12 -22  237.18   17.30
   0  14 -22   81.79    6.90
 -22  14   0   75.39    7.10
 -22   0 -14   79.79    7.90
   2  14 -22  348.97   15.90
 -14   2 -22  338.87   17.10
 -22  14  -2  369.96   16.90
 -22  14   2  357.56   16.30
 -22   2 -14  370.16   18.10
  -2  14 -22  369.66   16.50
   4  14 -22  685.53   27.20
 -22  14  -4  689.33   28.70
 -14   4 -22  670.03   28.40
 -22  14   4  659.63   27.40
 -22   4 -14  706.03   29.60
  -4  14 -22  668.73   28.00
   6  14 -22  202.68   10.00
 -22  14  -6  186.68   11.90
 -14   6 -22  200.78   11.50
 -22  14   6  192.48   10.20
 -22   6 -14  182.98   17.30
  -6  14 -22  198.78   11.20
 -22  14  -8   13.80    4.30
 -14   8 -22   13.50    4.20
   8  14 -22   11.90    3.10
  -8  14 -22   18.70    4.20
 -22   8 -14   15.10    5.20
 -14  10 -22  137.79   10.20
 -10  22 -14  132.79   10.50
  10  14 -22  143.99    8.60
 -22  14 -10  128.29   11.00
 -10  14 -22  135.89   11.30
 -14  22 -10  117.49   10.50
 -22  10 -14  138.89   11.00
 -14  12 -22  419.66   20.60
 -22  14 -12  434.66   21.40
 -12  22 -14  417.46   21.10
 -12  14 -22  432.46   20.70
 -14  22 -12  448.26   21.50
 -22  12 -14  446.96   21.40
 -14  22 -14  408.06   20.80
 -14  14 -22  413.16   20.30
 -22  14 -14  409.66   21.00
 -22  16   0   79.29    7.60
   0  16 -22   69.39    7.10
 -16   2 -22    7.90    3.60
   2  16 -22   -1.40    3.10
 -22  16  -2    4.90    3.60
 -22   2 -16   -5.40    4.10
  -2  16 -22   -2.90    3.10
 -22  16   2    5.50    3.50
 -22  16  -4   46.90    6.00
   4  16 -22   30.40    4.40
 -16   4 -22   46.30    6.00
  -4  16 -22   38.20    5.10
 -22  16   4   38.50    4.60
 -22   4 -16   38.40    6.20
 -22  16  -6    8.20    4.10
   6  16 -22    3.00    3.40
 -16  22  -6    5.50    4.20
  -6  16 -22   13.10    6.10
 -22   6 -16    2.20    4.40
 -16   8 -22  101.19    9.70
 -22  16  -8  113.29   10.80
   8  16 -22  110.69    7.90
  -8  22 -16  106.49    9.60
  -8  16 -22  109.69    9.30
 -16  22  -8  100.59    9.90
 -22   8 -16  111.79   10.30
  10  16 -22   15.40    3.70
 -16  10 -22   13.40    4.60
 -22  16 -10   12.80    5.30
 -10  22 -16   19.00    5.30
 -16  22 -10   15.30    5.30
 -10  16 -22   18.50    5.00
 -22  10 -16   18.90    5.70
 -12  22 -16   31.00    6.30
 -22  16 -12   42.60    6.60
 -16  12 -22   50.69    6.90
 -22  12 -16   48.60    7.20
 -12  16 -22   53.59    7.00
 -16  22 -12   44.60    7.00
 -14  22 -16   42.50    7.00
 -22  16 -14   26.50    6.50
 -16  14 -22   51.19    7.20
 -16  22 -14   33.10    6.70
 -22  14 -16   34.80    6.90
 -14  16 -22   28.10    6.40
 -16  16 -22   39.10    6.80
 -22  16 -16   42.90    7.20
 -16  22 -16   45.20    7.50
 -18  22   0  111.49    9.10
   0  18 -22  114.99    9.10
 -22  18   0  105.99    9.30
 -18   2 -22   15.70    4.40
 -22  18  -2    6.20    4.10
   2  18 -22    7.60    3.80
 -22  18   2    2.30    3.70
 -22   2 -18   10.40    4.70
 -18  22  -2    5.00    4.10
 -18   4 -22   57.69    7.00
 -22  18  -4   60.89    6.90
  -4  22 -18   64.79    8.50
   4  18 -22   73.19    7.70
 -18  22  -4   69.19    8.30
  -4  18 -22   50.99    6.20
 -22   4 -18   55.99    7.50
 -22  18   4   60.49    7.20
 -22  18  -6    1.50    4.50
 -18   6 -22    0.60    4.60
  -6  22 -18    2.80    4.40
   6  18 -22    1.10    3.90
 -22   6 -18   -2.50    4.80
 -22  18   6    6.40    4.30
 -18  22  -6   -1.00    4.40
  -6  18 -22    7.60    4.50
  -8  22 -18   74.59    8.20
 -22  18  -8   80.89    9.80
   8  18 -22   67.89    7.80
 -18   8 -22   74.49    9.60
 -18  22  -8   63.29    7.30
 -22   8 -18   79.39    9.80
  -8  18 -22   68.89    9.30
 -18  10 -22    9.40    5.40
 -10  22 -18    6.60    5.10
  10  18 -22    9.40    4.20
 -22  18 -10   10.10    5.70
 -10  18 -22    9.10    5.10
 -22  10 -18    2.60    5.30
 -18  22 -10    7.20    5.30
 -12  22 -18   35.70    6.60
 -22  18 -12   37.70    6.70
 -18  12 -22   28.50    6.60
 -22  12 -18   30.70    7.00
 -12  18 -22   18.30    5.80
 -18  22 -12   43.00    7.30
 -22  18 -14   25.60    7.00
 -18  14 -22   33.70    6.70
 -14  22 -18   41.20    7.40
 -14  18 -22   31.00    6.70
 -18  22 -14   19.80    6.60
 -22  14 -18   21.90    6.50
 -22  18 -16   42.80    7.90
 -18  16 -22   31.60    7.00
 -16  22 -18   49.10    7.90
 -22  16 -18   49.10    8.20
 -16  18 -22   35.10    7.40
 -18  22 -16   37.30    7.80
 -18  22 -18   45.10    8.30
 -22  18 -18   35.10    8.30
 -18  18 -22   29.40    9.80
   0  20 -22   32.80    5.50
   0  22 -20   25.80    5.70
 -22  20   0   27.10    5.30
 -20  22   0   30.60    5.30
  -2  22 -20  260.87   15.10
 -20  22   2  271.77   14.30
   2  20 -22  263.17   14.70
 -22  20   2  263.87   14.30
 -20  22  -2  232.18   17.90
  -2  20 -22  284.37   15.10
 -22  20  -4  668.73   29.40
   4  20 -22  681.23   28.60
 -20   4 -22  697.33   30.40
  -4  22 -20  664.33   29.50
 -20  22   4  652.53   28.20
 -22  20   4  682.23   28.30
 -20  22  -4  672.93   29.40
  -4  20 -22  659.63   29.20
 -22   4 -20  675.83   30.50
   6  20 -22  340.57   16.70
 -22  20  -6  324.87   18.00
  -6  22 -20  334.77   18.00
 -20   6 -22  317.97   18.20
 -20  22  -6  339.57   18.20
 -22   6 -20  352.26   18.80
  -6  20 -22  342.27   17.80
 -22  20  -8  137.09   12.20
  -8  22 -20  133.09   12.00
   8  20 -22  141.99   11.20
 -20   8 -22  138.59   12.60
 -20  22  -8  121.79   12.30
 -22   8 -20  157.78   12.90
  -8  20 -22  153.38   12.00
 -10  22 -20  280.87   17.10
 -22  20 -10  295.67   17.50
 -20  10 -22  278.97   17.40
  10  20 -22  302.97   16.90
 -10  20 -22  276.67   16.80
 -20  22 -10  255.27   17.10
 -22  10 -20  294.27   18.10
 -12  22 -20  466.85   24.10
 -20  12 -22  492.05   24.20
 -22  20 -12  483.25   24.50
 -12  20 -22  487.65   23.90
 -22  12 -20  466.85   24.50
 -20  22 -12  478.15   24.20
 -14  22 -20  309.37   19.10
 -20  14 -22  310.17   19.30
 -22  20 -14  314.47   19.40
 -22  14 -20  294.77   19.30
 -20  22 -14  329.17   19.80
 -14  20 -22  308.67   18.90
 -20  16 -22   13.00   11.40
 -22  20 -16   37.10    8.40
 -16  22 -20   36.60    8.00
 -20  22 -16   44.90    8.50
 -22  16 -20   33.70    7.90
 -22  22   0    7.40    5.10
   0  22 -22    8.60    5.30
 -22  22  -2   35.20    6.30
  -2  22 -22   39.90    6.60
   2  22 -22   54.49    6.80
 -22   4 -22  286.77   16.70
 -22  22  -4  280.37   16.30
  -4  22 -22  256.57   16.10
   4  22 -22  258.27   15.30
 -22   6 -22  126.39   13.30
 -22  22  -6  161.58   12.80
  -6  22 -22  128.29   12.50
   6  22 -22  142.09   11.40
 -22   8 -22   27.80    7.00
 -22  22  -8   29.10    7.10
  -8  22 -22   26.80    6.50
   8  22 -22   35.40    6.10
 -22  10 -22   64.69    8.70
 -22  22 -10   63.29    9.10
 -10  22 -22   67.69    8.50
  10  22 -22   87.79   10.10
 -22  12 -22  180.28   15.20
 -22  22 -12  162.98   15.20
 -12  22 -22  128.19   13.90
 -22  14 -22  188.68   23.00
 -22  22 -14  165.58   16.40
 -23   1  -1  391.66   18.20
 -23   1   1  411.46   17.80
 -23   3  -1   -3.20    2.30
 -23   3   1    4.80    2.70
 -23   1  -3   -1.00    2.90
 -23   3  -3  211.48   11.50
 -23   3   3  205.98   10.80
 -23   5  -1    2.90    2.70
 -23   1  -5    0.70    3.30
  -1   5 -23    2.30    1.70
 -23   5   1    2.60    2.60
 -23   3   5  311.77   14.50
 -23   5  -3  304.57   15.00
  -5   3 -23  314.07   13.60
 -23   3  -5  312.07   15.20
 -23   5   3  312.57   14.40
  -3   5 -23  319.77   13.40
  -5   5 -23  566.44   22.70
 -23   5   5  556.04   23.10
 -23   5  -5  563.74   24.20
 -23   7  -1  198.38   10.80
   1   7 -23  194.68    8.80
 -23   7   1  196.48   10.40
 -23   1  -7  191.98   11.70
  -1   7 -23  200.58    9.30
  -7   3 -23    6.30    2.60
 -23   7  -3    8.90    3.40
 -23   3  -7    7.30    3.20
 -23   7   3    3.50    2.70
  -3   7 -23   11.40    2.70
  -7   5 -23   78.79    6.20
 -23   7  -5   77.89    7.40
 -23   5   7   67.69    6.00
 -23   5  -7   85.89    7.60
 -23   7   5   78.59    6.20
  -5   7 -23   86.09    6.10
  -7   7 -23   48.50    5.70
 -23   7  -7   45.10    5.60
 -23   7   7   51.49    5.30
 -23   9  -1  322.37   15.10
   1   9 -23  317.17   13.60
 -23   9   1  317.17   14.80
  -1   9 -23  315.37   13.90
 -23   1  -9  316.77   16.10
  -9   3 -23    6.60    3.00
   3   9 -23    4.60    2.10
 -23   9  -3    9.30    3.40
 -23   3  -9    2.90    3.20
 -23   9   3    3.50    2.70
  -3   9 -23    4.70    2.60
  -9   5 -23   -2.00    2.70
 -23   9  -5   -0.90    3.00
 -23   9   5    0.40    2.70
 -23   5  -9   -1.10    3.30
  -5   9 -23   -4.80    2.50
  -9   7 -23  154.68    9.20
 -23   9  -7  150.68   10.00
 -23   7  -9  147.29   10.40
  -7   9 -23  142.99    8.90
  -9   9 -23  318.57   15.40
 -23   9  -9  324.47   16.50
 -23  11  -1   66.89    6.60
   1  11 -23   67.99    5.60
 -23   1 -11   57.09    6.80
  -1  11 -23   59.09    5.80
 -23  11   1   63.39    6.40
 -11   3 -23   86.09    7.20
 -23  11  -3   94.29    7.80
   3  11 -23   90.29    6.10
  -3  11 -23   85.39    6.70
 -23   3 -11   87.19    8.60
 -23  11   3   91.49    7.10
   5  11 -23   92.19    5.70
 -23  11  -5   90.09    8.10
 -11   5 -23   79.69    7.30
  -5  11 -23   96.09    7.20
 -23   5 -11   96.49    9.00
 -23  11   5   97.29    6.90
 -23  11  -7   13.30    4.30
   7  11 -23    9.80    2.60
 -11   7 -23   10.80    3.70
 -23   7 -11    1.40    3.80
  -7  11 -23    9.10    3.50
 -11   9 -23   54.99    7.10
 -23  11  -9   56.49    6.60
  -9  11 -23   55.39    7.00
 -23   9 -11   56.19    7.80
 -11  11 -23   -3.40    3.90
 -23  11 -11   -2.20    4.70
 -23  13  -1   32.60    4.80
   1  13 -23   34.80    4.20
 -23  13   1   36.10    4.70
  -1  13 -23   33.70    4.20
 -23   1 -13   37.20    6.10
 -13   3 -23  404.56   18.70
   3  13 -23  392.36   17.20
 -23  13  -3  400.96   18.70
  -3  13 -23  419.96   18.10
 -23   3 -13  390.46   20.10
 -23  13   3  408.26   18.00
 -23  13  -5  412.86   19.80
   5  13 -23  422.76   17.70
 -13   5 -23  432.16   19.40
  -5  13 -23  441.66   19.20
 -23  13   5  416.56   18.40
   7  13 -23   22.00    3.00
 -13   7 -23   28.30    5.00
 -23  13  -7   24.50    4.90
 -23   7 -13   31.60    5.80
  -7  13 -23   27.10    4.70
 -23  13  -9    1.60    5.70
  -9  13 -23    2.40    4.50
 -23   9 -13    3.00    4.60
 -11  23 -13  136.29   10.90
 -23  13 -11  135.89   11.20
 -13  11 -23  138.79   10.50
 -23  11 -13  142.89   11.60
 -13  23 -11  136.99   11.10
 -11  13 -23  163.48   10.90
 -13  23 -13  381.46   19.50
 -13  13 -23  379.06   18.90
 -23  13 -13  355.76   19.50
 -23  15  -1    6.50    3.60
   1  15 -23    9.50    3.50
  -1  15 -23   16.00    4.00
 -23   1 -15   21.90    4.90
 -23  15   1   11.50    3.80
 -15   3 -23   54.79    6.30
 -23  15  -3   56.29    7.40
   3  15 -23   55.39    6.40
  -3  15 -23   45.70    5.50
 -23   3 -15   43.50    6.50
 -23  15   3   63.09    6.60
 -15   5 -23   45.40    6.50
 -23  15  -5   42.00    5.70
   5  15 -23   50.19    6.20
 -23  15   5   41.20    5.00
 -23   5 -15   55.09    7.10
  -5  15 -23   41.70    5.30
 -15   7 -23   18.10    4.60
   7  15 -23   14.20    3.40
  -7  15 -23   10.30    5.80
 -23   7 -15   22.80    5.40
 -15  23  -7   11.10    4.60
  -9  23 -15   90.69    9.60
 -23  15  -9   96.29   10.00
 -15   9 -23  105.19    9.60
  -9  15 -23   93.09    9.30
 -23   9 -15   75.79   10.40
 -15  23  -9  102.89   10.00
 -15  11 -23   -2.60    4.70
 -23  15 -11    4.00    5.20
 -11  23 -15    1.30    4.80
 -11  15 -23    5.30    4.80
 -23  11 -15   -9.70    5.30
 -15  23 -11    5.80    5.10
 -23  15 -13  131.29   12.30
 -15  13 -23  133.19   11.60
 -13  23 -15  150.18   12.20
 -13  15 -23  148.19   11.70
 -15  23 -13  149.99   12.30
 -23  13 -15  142.19   12.60
 -23  15 -15    0.00    5.80
 -15  15 -23   -6.30    5.20
 -15  23 -15   -6.10    5.30
   1  17 -23  300.37   15.00
 -23  17  -1  310.87   15.70
 -23  17   1  293.27   15.30
  -1  17 -23  302.27   15.20
   3  17 -23   63.09    7.20
 -17   3 -23   47.00    6.20
 -23  17  -3   65.09    8.00
 -17  23  -3   51.39    6.40
  -3  17 -23   37.70    7.70
 -23   3 -17   38.30    6.90
 -23  17   3   53.29    5.80
 -17   5 -23    5.10    4.40
   5  17 -23    1.00    3.70
 -23  17  -5   -4.70    5.30
  -5  23 -17    4.10    4.80
 -17  23  -5    6.40    4.50
 -23   5 -17    1.50    4.60
 -23  17   5   -2.40    3.70
  -5  17 -23   -4.40    3.80
   7  17 -23  187.58   11.10
  -7  23 -17  211.18   13.60
 -17   7 -23  195.58   13.40
 -23  17  -7  207.38   13.50
  -7  17 -23  228.88   13.20
 -17  23  -7  207.48   13.30
 -23   7 -17  202.48   14.10
   9  17 -23  371.96   18.40
 -17   9 -23  382.66   19.40
  -9  23 -17  387.76   19.60
 -23  17  -9  366.46   19.60
 -23   9 -17  351.76   19.80
  -9  17 -23  383.56   19.20
 -17  23  -9  370.06   19.70
 -23  17 -11   55.99    7.50
 -11  23 -17   65.19    8.10
 -17  11 -23   58.49    7.60
 -23  11 -17   71.49    8.50
 -11  17 -23   78.69    9.70
 -17  23 -11   59.09    7.80
 -13  23 -17    1.50    5.70
 -17  13 -23   -3.90    5.40
 -23  17 -13    0.50    5.70
 -17  23 -13   -5.10    5.90
 -23  13 -17    2.10    5.90
 -13  17 -23   -1.20    5.20
 -17  15 -23   57.59    7.90
 -15  23 -17   62.59    8.30
 -23  17 -15   43.00    7.50
 -15  17 -23   61.89    7.80
 -23  15 -17   61.49    8.50
 -17  23 -15   64.49    8.40
 -17  17 -23  248.88   16.90
 -23  17 -17  226.88   17.10
 -17  23 -17  240.08   17.50
 -23  19  -1   12.30    5.90
   1  19 -23    5.40    4.40
 -19  23   1   15.20    4.60
 -23  19   1   18.70    4.90
  -1  19 -23   21.30    4.90
 -19  23   3   83.09    8.60
 -19   3 -23   94.69    9.50
  -3  23 -19   81.39    9.70
 -23  19  -3   83.69    9.70
   3  19 -23   70.79    7.30
 -19  23  -3   80.79    9.90
  -3  19 -23   75.89    9.20
 -23  19   3   89.09    8.90
 -23   3 -19  107.89   10.80
 -23  19  -5  109.99   10.90
 -19  23   5  104.09    9.30
 -19   5 -23  125.99   11.30
  -5  23 -19  106.19   10.50
 -23   5 -19  113.79   11.60
 -23  19   5  130.09   10.20
  -5  19 -23  107.29   10.70
 -19  23  -5  102.89   11.10
 -19   7 -23    0.00    4.90
 -23  19  -7   -2.40    4.80
   7  19 -23   -7.40    4.60
  -7  23 -19   -1.50    5.10
  -7  19 -23   -6.90    4.80
 -19  23  -7   -1.70    5.00
 -23   7 -19   11.10    5.70
 -23  19  -9    4.20    5.50
   9  19 -23    7.70    4.80
  -9  23 -19    1.50    5.40
 -19   9 -23   -1.70    5.50
 -19  23  -9   -0.70    5.50
 -23   9 -19    2.30    5.70
  -9  19 -23   11.20    5.40
 -23  19 -11   23.00    6.60
 -11  23 -19   32.40    6.90
 -19  11 -23   18.40    6.80
 -11  19 -23   26.50    6.60
 -23  11 -19   39.90    7.30
 -19  23 -11   26.30    7.10
 -23  19 -13   87.99    9.90
 -13  23 -19  117.39   12.70
 -19  13 -23  124.49   12.90
 -23  13 -19  108.69   13.50
 -13  19 -23   88.89    9.70
 -19  23 -13   92.09   10.00
 -19  15 -23   14.70    6.90
 -15  23 -19    6.00    6.60
 -23  19 -15   -0.20    7.00
 -15  19 -23  -10.10    6.60
 -23  15 -19   -5.40    6.70
 -19  23 -15    3.50    7.10
 -23  19 -17   32.90    9.10
 -17  23 -19   29.10   10.00
 -23  17 -19   41.90    9.10
 -19  23 -17   38.40    9.20
  -1  23 -21    1.10    5.30
 -23  21  -1    0.90    5.20
   1  21 -23    3.30    5.10
 -21  23   1    1.20    4.80
   1  23 -21   -1.10    5.10
 -23  21   1    3.90    5.00
 -21  23  -1    3.00    4.90
  -1  21 -23   -3.80    4.80
 -21  23   3  131.59   16.50
 -23  21  -3  129.99   12.00
   3  21 -23  134.39   11.20
  -3  23 -21  116.49   11.70
   3  23 -21  140.69   11.30
 -23  21   3  128.39   11.90
 -21  23  -3  126.09   11.80
  -3  21 -23  134.09   11.40
 -23  21  -5  234.38   14.80
   5  21 -23  232.58   13.60
 -21   5 -23  198.88   15.60
  -5  23 -21  215.48   14.40
 -21  23  -5  200.58   14.30
   5  23 -21  212.38   13.60
 -23   5 -21  197.08   15.60
  -5  21 -23  196.78   14.10
 -23  21  -7   30.90    6.90
  -7  23 -21   23.10    6.80
   7  21 -23   41.00    6.20
 -21   7 -23   33.20    7.40
  -7  21 -23   23.60    6.50
 -21  23  -7   28.20    6.70
 -23   7 -21   23.70    6.80
   9  21 -23    3.60    6.60
  -9  23 -21    5.00    6.20
 -21   9 -23   10.10    6.70
 -23  21  -9   20.10    6.50
 -21  23  -9    7.60    6.40
 -23   9 -21    1.80    6.40
  -9  21 -23    9.40    6.00
 -21  11 -23   90.49    9.80
 -11  23 -21   60.59    8.80
 -23  21 -11   85.69    9.80
 -21  23 -11   72.59    9.40
 -23  11 -21   71.69    9.40
 -11  21 -23   68.29    8.50
 -13  23 -21  222.98   23.50
 -23  21 -13  172.78   16.00
 -21  23 -13  196.08   16.20
 -23  13 -21  210.18   16.70
 -23  21 -15   26.10   12.60
 -23  23  -1   75.39    8.10
  -1  23 -23   58.79    7.80
   1  23 -23   71.69    8.20
 -23  23  -3    9.50    6.40
  -3  23 -23   11.40    6.20
   3  23 -23    0.60    5.90
 -23   5 -23   95.19   11.30
 -23  23  -5   63.29    8.50
  -5  23 -23   53.69    7.70
   5  23 -23   32.20    7.00
 -23  23  -7    6.50    6.70
  -7  23 -23    3.40    6.40
   7  23 -23   -7.60    5.80
 -23   9 -23   25.20    8.30
 -23  23  -9   38.30    8.50
  -9  23 -23   43.00    9.50
 -23  23 -11    9.30    7.40
   0 -24   0 1179.28  139.49
   0   0  24  972.20   89.69
  24   0   0  861.21  103.89
 -24   2   0  365.46   17.10
 -24   2  -2  178.18   10.50
 -24   2   2  168.08   10.00
 -24   0  -4   35.10    4.70
 -24   4   0   27.80    4.20
 -24   4  -2    2.50    3.10
 -24   2  -4    1.60    3.10
 -24   4   2    0.20    2.80
  -4   4 -24  267.97   11.60
 -24   4  -4  242.58   13.40
 -24   4   4  252.87   12.60
   0   6 -24  264.57   11.00
 -24   6   0  264.97   13.20
 -24   0  -6  257.27   13.70
 -24   6  -2   65.79    6.80
  -2   6 -24   58.29    4.90
 -24   6   2   67.89    6.20
 -24   2  -6   62.69    7.30
  -6   4 -24   66.79    5.80
 -24   4   6   74.19    6.40
 -24   6  -4   64.89    7.30
  -4   6 -24   74.29    5.60
 -24   6   4   73.99    6.50
 -24   4  -6   68.19    7.70
 -24   6  -6    7.80    3.90
 -24   6   6   16.90    3.40
  -6   6 -24   13.60    3.10
 -24   8   0  745.93   30.80
 -24   0  -8  772.62   31.70
   0   8 -24  753.82   29.20
 -24   8  -2  452.55   19.70
   2   8 -24  428.96   17.10
 -24   2  -8  424.36   20.30
  -2   8 -24  437.46   18.00
 -24   8   2  421.06   18.90
  -8   4 -24   27.80    4.00
 -24   8  -4   35.40    4.90
 -24   4  -8   26.40    5.00
  -4   8 -24   23.30    3.60
 -24   8   4   26.50    4.10
 -24   6   8  178.08   11.70
 -24   8  -6  173.58   11.40
  -8   6 -24  182.88   10.00
  -6   8 -24  178.08    9.80
 -24   6  -8  175.88   11.50
 -24   8   6  171.78    9.60
 -24   8  -8  644.44   27.90
  -8   8 -24  642.04   26.60
 -24   0 -10  713.83   29.90
   0  10 -24  699.13   27.50
 -24  10   0  679.83   28.70
 -24  10  -2  252.67   13.50
   2  10 -24  243.98   11.50
 -24   2 -10  270.57   14.90
 -24  10   2  263.67   13.00
  -2  10 -24  266.07   12.40
 -24  10  -4   10.50    3.80
 -10   4 -24   17.00    3.70
   4  10 -24   15.30    2.50
  -4  10 -24    8.70    3.20
 -24  10   4    9.40    3.20
 -24   4 -10   14.10    4.30
 -10   6 -24  108.09    8.20
 -24  10  -6  106.09    9.00
  -6  10 -24  106.29    8.00
 -24   6 -10  115.29    9.70
 -24  10   6  108.49    7.60
 -24  10  -8  456.65   21.10
 -10   8 -24  453.35   20.00
  -8  10 -24  448.86   19.80
 -24   8 -10  403.86   24.10
 -24  10 -10  409.96   20.30
 -10  10 -24  409.26   18.90
 -24  12   0   32.20    4.80
   0  12 -24   31.70    4.10
   2  12 -24    6.60    2.90
 -24  12  -2   11.70    3.80
 -24  12   2    3.90    3.60
  -2  12 -24    4.10    3.10
   4  12 -24  243.48   11.60
 -12   4 -24  259.57   13.50
 -24  12  -4  265.67   14.10
  -4  12 -24  256.37   13.00
 -24  12   4  256.67   12.80
 -12   6 -24   31.20    5.00
 -24  12  -6   43.90    5.70
   6  12 -24   38.30    5.20
  -6  12 -24   32.70    4.70
 -24   6 -12   27.40    5.50
 -24  12   6   44.70    5.90
 -12   8 -24   30.30    5.10
 -24   8 -12   40.50    6.40
  -8  12 -24   38.60    5.20
 -12  10 -24    9.60    4.40
 -24  12 -10    6.60    4.90
 -10  12 -24    3.50    4.20
 -24  10 -12   12.60    5.20
 -24  12 -12   95.09   10.70
 -12  24 -12   92.49   10.10
 -12  12 -24   98.09    9.30
 -24  14   0   56.49    7.40
   0  14 -24   53.89    6.50
   2  14 -24    5.10    3.10
 -24  14  -2    3.00    3.70
 -24   2 -14   -2.10    4.50
  -2  14 -24    1.10    3.30
 -24  14   2    3.50    3.70
 -14   4 -24   64.99    8.10
 -24  14  -4   65.49    8.30
   4  14 -24   64.29    6.40
 -24   4 -14   58.19    7.40
 -24  14   4   69.69    7.10
  -4  14 -24   66.69    7.30
   6  14 -24    5.00    3.00
 -24   6 -14   -2.00    4.30
  -6  14 -24    4.30    4.10
 -24  14  -8  122.39   10.30
 -14   8 -24  104.09    9.70
  -8  14 -24  107.29    9.50
 -24   8 -14  109.69   10.70
 -10  24 -14   42.00    6.70
 -24  14 -10   48.80    7.20
 -14  10 -24   49.40    6.50
 -14  24 -10   38.40    6.50
 -24  10 -14   38.40    6.60
 -10  14 -24   48.70    6.10
 -14  12 -24   67.99    7.50
 -24  14 -12   83.59   10.50
 -12  24 -14   58.69    7.60
 -14  24 -12   61.79    7.90
 -12  14 -24   60.59    7.30
 -24  12 -14   61.89    7.60
 -14  14 -24   20.50    6.00
 -24  14 -14   24.10    6.40
 -14  24 -14   24.70    6.20
   0  16 -24  429.16   19.40
 -24  16   0  428.06   20.00
   2  16 -24  226.38   12.60
 -24  16  -2  238.78   13.60
 -24  16   2  240.78   13.10
 -24   2 -16  257.67   14.80
  -2  16 -24  226.28   13.00
 -16   4 -24   34.40    5.90
   4  16 -24   38.20    4.90
 -24   4 -16   30.00    6.30
 -24  16   4   29.00    4.90
 -16   6 -24   82.39    9.50
 -24  16  -6   87.29   10.10
   6  16 -24   92.89    7.70
 -16  24  -6   86.59    9.70
 -24   6 -16   78.29   10.50
  -6  16 -24   93.59    9.20
 -24  16   6   91.09    8.20
 -16   8 -24  511.45   24.10
 -24  16  -8  518.55   24.60
  -8  24 -16  510.95   24.30
 -24   8 -16  526.65   24.90
  -8  16 -24  531.85   23.90
 -16  24  -8  534.15   24.60
 -24  16 -10  342.57   19.00
 -16  10 -24  353.36   18.80
 -10  24 -16  352.26   19.20
 -10  16 -24  362.06   18.60
 -24  10 -16  344.87   19.80
 -16  24 -10  375.16   19.50
 -16  12 -24    4.20    5.60
 -12  24 -16    7.70    5.80
 -24  16 -12    0.80    5.80
 -24  12 -16    1.60    6.00
 -12  16 -24    8.70    5.40
 -16  24 -12    4.60    5.60
 -24  16 -14   39.00    7.80
 -14  24 -16   52.09    7.90
 -16  14 -24   31.30    6.90
 -24  14 -16   28.70    7.50
 -16  24 -14   39.20    7.80
 -14  16 -24   57.09    7.80
 -16  24 -16  272.07   18.20
 -24  16 -16  278.47   18.30
 -16  16 -24  284.67   17.70
 -24  18   0  360.06   17.90
   0  18 -24  362.86   17.70
   2  18 -24  116.89   14.40
 -24  18  -2  138.09   12.30
 -18  24  -2  145.79   11.50
 -24  18   2  146.59   10.50
  -2  18 -24  167.48   10.90
 -18   4 -24   -7.90    5.00
  -4  24 -18   -0.30    4.40
   4  18 -24    5.00    4.30
 -24  18  -4   -3.80    4.40
 -24  18   4    4.60    4.20
 -18  24  -4    4.70    4.90
 -24   4 -18   -8.40    5.10
  -4  18 -24   -1.20    4.50
 -24  18  -6   42.40    6.70
  -6  24 -18   40.90    6.60
 -18   6 -24   45.00    6.90
   6  18 -24   48.40    5.50
 -24   6 -18   42.40    7.40
  -6  18 -24   40.00    6.30
 -18  24  -6   38.40    6.80
  -8  24 -18  326.37   18.40
 -18   8 -24  309.37   17.80
 -24  18  -8  317.57   17.80
 -24   8 -18  313.17   18.90
  -8  18 -24  319.67   17.40
 -18  24  -8  321.17   18.00
 -24  18 -10  174.38   14.30
 -10  24 -18  193.18   14.30
 -18  10 -24  180.28   14.10
 -24  10 -18  190.18   15.20
 -10  18 -24  198.28   14.00
 -18  24 -10  185.18   14.70
 -24  18 -12    6.80    6.60
 -12  24 -18    9.20    6.40
 -18  12 -24    4.00    6.20
 -24  12 -18    6.30    6.90
 -18  24 -12    2.80    6.30
 -12  18 -24    7.10    6.00
 -18  14 -24   21.60    7.10
 -24  18 -14   38.80    7.70
 -14  24 -18   19.20    6.80
 -14  18 -24   18.80    6.60
 -18  24 -14   -0.10    6.90
 -24  14 -18    9.00    7.10
 -16  24 -18  195.88   16.50
 -24  18 -16  161.88   16.10
 -18  24 -16  185.28   16.10
 -24  16 -18  176.88   16.30
   0  24 -20   87.59   10.40
 -20  24   0   91.59   10.20
   0  20 -24   97.89   10.10
 -24  20   0   86.19   10.60
  -2  24 -20   15.50    5.80
 -20  24   2   14.30    5.30
 -24  20  -2    4.30    5.40
   2  20 -24    5.60    4.90
  -2  20 -24    0.40    4.90
 -20  24  -2   -2.50    5.50
   4  20 -24   48.70    6.20
 -20   4 -24   42.20    6.60
 -24  20  -4   48.50    6.90
 -20  24   4   43.00    7.30
  -4  24 -20   42.70    6.80
 -24   4 -20   44.30    7.50
  -4  20 -24   50.49    6.90
 -20  24  -4   35.60    6.90
 -24  20  -6    4.80    5.40
  -6  24 -20  -10.80    5.60
 -20   6 -24    4.50    6.10
   6  20 -24    7.20    4.90
 -20  24  -6   -3.50    5.30
  -6  20 -24   -5.40    5.30
 -24   6 -20   -3.20    6.20
 -24  20  -8   16.00    6.90
  -8  24 -20   26.90    6.40
 -20   8 -24   36.60    7.40
  -8  20 -24   33.50    6.60
 -20  24  -8   36.80    7.10
 -24   8 -20   25.80    7.30
 -20  10 -24    4.10    6.50
 -24  20 -10   -5.30    6.30
 -10  24 -20    5.30    6.70
 -10  20 -24   -5.60    6.00
 -20  24 -10   16.80    7.10
 -24  10 -20    9.60    7.30
 -12  24 -20   45.80    7.80
 -24  20 -12   32.20    8.50
 -20  24 -12   44.40    9.00
 -12  20 -24   50.39    8.20
 -24  12 -20   54.39    8.80
 -24  20 -14   -5.10    7.40
 -14  24 -20  -13.80    7.10
 -24  14 -20   11.20    7.80
 -20  24 -14   10.10    7.30
 -24  22   0   73.59    8.90
   0  24 -22   59.79    8.10
 -22  24   0   65.99    8.00
   0  22 -24   68.89    8.00
   2  22 -24   -3.70    5.60
  -2  24 -22   -8.10    5.70
 -24  22  -2    2.70    5.70
   2  24 -22    4.50    5.80
  -2  22 -24    3.80    5.60
 -24  22   2   -1.90    7.20
 -22  24  -2    1.80    5.80
   4  22 -24   50.99    7.40
 -24  22  -4   59.39    8.10
  -4  24 -22   59.29    7.90
  -4  22 -24   60.39    7.80
   4  24 -22   80.89   10.70
 -22  24  -4   65.39    8.50
  -6  24 -22   12.30    6.80
 -22   6 -24   11.90    7.40
 -24  22  -6   30.80    7.10
   6  22 -24    6.60    5.80
 -22  24  -6   19.90    6.90
 -24   6 -22   -1.70    7.40
   6  24 -22   22.30    6.40
  -6  22 -24   15.60    6.20
 -24  22  -8    7.30    7.00
 -22   8 -24    1.80    7.00
 -22  24  -8   12.70    7.30
  -8  22 -24    8.50    6.60
 -24   8 -22   17.20    9.30
   8  24 -22   20.80    6.20
 -24  22 -10   -3.00    7.30
 -10  22 -24    1.70    7.80
 -22  24 -10    4.50    7.40
  10  24 -22   15.60   10.10
   0  24 -24  325.77   19.20
 -24  24  -2  174.48   14.90
  -2  24 -24  141.29   14.00
   2  24 -24  134.19   14.00
 -24  24  -4    5.40    7.50
  -4  24 -24    8.70    7.00
   4  24 -24   14.90    6.60
 -24  24  -6   51.29   10.50
  -6  24 -24   42.90   13.10
   6  24 -24   47.30    8.40
  -1  -1  25  805.32   90.89
  -1   1  25  837.82   89.59
   1   1  25  906.31   97.39
 -25   3  -1  118.69    9.00
 -25   3   1  114.99    9.10
 -25   1  -3  134.99    9.00
 -25   5  -1  162.18   10.10
 -25   1  -5  166.58   10.50
 -25   5   1  143.09    9.70
 -25   5  -3    5.00    3.60
 -25   5   3    4.80    3.30
 -25   3  -5    6.30    3.50
  -3   5 -25    1.20    2.50
 -25   5  -5   31.50    5.30
 -25   5   5   38.60    4.90
  -5   5 -25   38.30    5.10
 -25   7  -1  583.54   25.50
   1   7 -25  640.14   23.60
  -1   7 -25  597.64   23.50
 -25   1  -7  591.44   26.40
 -25   7   1  580.34   25.20
 -25   7  -3   93.99    8.40
  -3   7 -25   98.19    6.50
 -25   7   3   95.89    7.80
 -25   3  -7   99.19    8.90
  -7   5 -25   50.49    5.60
 -25   7  -5   38.90    5.50
  -5   7 -25   28.30    3.90
 -25   7   5   37.40    4.80
 -25   5  -7   39.70    5.80
  -7   7 -25  362.56   16.00
 -25   7   7  339.57   15.80
 -25   7  -7  340.47   17.60
 -25   9  -1  877.51   36.00
   1   9 -25  904.61   33.90
  -1   9 -25  897.01   34.40
 -25   9   1  881.61   35.70
 -25   1  -9  893.51   36.90
 -25   9  -3  282.97   14.70
  -3   9 -25  279.47   13.00
 -25   9   3  275.37   13.90
 -25   3  -9  271.77   15.30
  -9   5 -25  230.08   11.90
 -25   9  -5  238.38   13.20
 -25   9   5  219.58   11.80
 -25   5  -9  217.78   13.80
  -5   9 -25  224.88   11.70
 -25   9  -7  590.84   26.50
  -9   7 -25  610.84   25.20
 -25   9   7  583.94   24.70
  -7   9 -25  609.04   25.10
 -25   9  -9  911.11   38.20
  -9   9 -25  914.81   36.70
   1  11 -25  184.18    9.50
 -25  11  -1  174.88   11.10
  -1  11 -25  186.08    9.90
 -25   1 -11  197.48   12.90
 -25  11   1  160.48   10.60
 -25  11  -3    2.00    3.80
   3  11 -25    2.90    2.70
 -25  11   3   -6.30    3.30
  -3  11 -25   -1.80    3.10
 -25   3 -11    1.70    4.40
 -11   5 -25    5.50    3.70
 -25  11  -5    1.30    3.90
 -25  11   5    2.50    3.40
  -5  11 -25    3.50    3.60
 -25   5 -11    1.60    4.60
 -11   7 -25   58.69    7.60
  -7  11 -25   66.89    7.50
 -25   7 -11   62.39    7.30
 -25  11  -9  175.18   12.70
 -25   9 -11  180.48   12.90
  -9  11 -25  183.48   15.20
 -11  11 -25   -2.40    4.30
 -25  11 -11   -0.50    5.00
 -25  13  -1   51.89    6.10
   1  13 -25   63.59    6.70
 -25  13   1   53.99    6.20
  -1  13 -25   53.49    5.60
 -25   1 -13   67.49    7.70
   3  13 -25   32.80    3.80
 -25  13  -3   20.70    5.00
  -3  13 -25   30.70    4.80
 -25  13   3   30.70    4.80
 -25   3 -13   27.60    5.80
 -13   5 -25   11.40    4.50
 -25   5 -13   13.90    5.00
  -5  13 -25   13.90    4.00
 -25  13   5   20.90    4.10
 -13   7 -25   26.60    5.40
 -25  13  -7   39.70    6.40
 -25   7 -13   39.00    6.40
 -13   9 -25  103.09   10.10
 -25  13  -9  111.49   11.00
 -25   9 -13  118.99   11.60
  -9  13 -25   99.99    9.60
 -25  13 -11   18.10    5.60
 -13  11 -25    8.60    5.20
 -11  25 -13   11.70    5.10
 -25  11 -13   16.20    5.70
 -13  25 -11    9.50    5.30
 -11  13 -25    4.70    4.80
 -13  25 -13   44.10    7.40
 -13  13 -25   39.10    6.40
 -25  13 -13   42.00    7.30
   1  15 -25  323.37   15.70
 -25  15  -1  343.47   17.00
 -25  15   1  341.17   16.60
  -1  15 -25  317.57   16.00
   3  15 -25   52.79    5.30
 -25   3 -15   43.70    7.60
 -25  15   3   56.49    7.50
  -3  15 -25   50.29    6.00
 -15   5 -25   72.59    9.60
   5  15 -25   75.99    7.90
 -25  15  -5   79.19    9.50
 -25   5 -15   59.89    7.70
  -5  15 -25   68.29    8.50
 -25  15   5   73.19    7.80
 -25  15  -7  264.27   15.40
 -15   7 -25  243.98   14.50
  -7  15 -25  250.57   14.10
 -15  25  -7  242.58   15.00
 -25   7 -15  229.58   15.70
 -15   9 -25  473.75   22.30
 -25  15  -9  457.15   22.80
  -9  25 -15  429.26   22.40
 -15  25  -9  462.35   22.80
  -9  15 -25  466.95   21.90
 -25   9 -15  492.35   23.60
 -25  15 -11   46.30    7.40
 -15  11 -25   40.10    6.60
 -11  25 -15   48.00    7.50
 -25  11 -15   22.80    6.90
 -15  25 -11   36.80    6.90
 -11  15 -25   39.10    6.50
 -13  25 -15    5.40    6.00
 -15  13 -25    4.00    5.80
 -25  15 -13   -9.10    6.10
 -25  13 -15    6.80    6.40
 -13  15 -25    5.50    6.00
 -15  25 -13    2.00    5.90
 -15  15 -25  229.78   15.00
 -15  25 -15  173.08   15.50
 -25  15 -15  206.88   16.30
 -25  17  -1  432.86   27.20
 -25  17   1  487.65   21.80
  -1  17 -25  486.95   21.50
 -25  17  -3  176.28   12.20
   3  17 -25  171.78   10.70
 -25   3 -17  158.98   13.10
 -17  25  -3  152.48   11.90
  -3  17 -25  161.28   11.30
 -25  17   3  170.28   11.40
 -17   5 -25   88.09   11.00
   5  17 -25   70.99    8.10
 -25  17  -5   75.09    8.30
 -25   5 -17   85.19   11.40
  -5  17 -25   68.79    9.30
 -17  25  -5   99.09   10.40
  -7  25 -17  413.26   20.90
 -25  17  -7  407.06   20.80
 -17   7 -25  401.36   20.60
 -17  25  -7  382.56   20.40
  -7  17 -25  414.56   20.10
 -25   7 -17  386.46   21.50
 -25  17  -9  646.84   29.20
 -17   9 -25  610.14   28.50
  -9  25 -17  632.04   28.90
 -25   9 -17  606.74   29.50
 -17  25  -9  666.83   29.50
  -9  17 -25  613.64   28.10
 -25  17 -11  130.29   13.50
 -11  25 -17  133.59   12.60
 -17  11 -25  150.38   13.30
 -25  11 -17  130.79   14.10
 -11  17 -25  134.39   12.90
 -17  25 -11  112.89   13.20
 -17  13 -25   64.39    8.30
 -13  25 -17   62.69    8.70
 -25  17 -13   47.00    8.40
 -25  13 -17   49.99    8.90
 -17  25 -13   60.29    8.50
 -13  17 -25   52.69    7.90
 -17  15 -25  250.57   17.90
 -15  25 -17  279.07   18.20
 -25  17 -15  253.57   18.80
 -25  15 -17  236.88   18.40
 -15  17 -25  251.57   17.50
 -17  25 -15  266.67   18.20
 -19  25   1  185.28   12.90
   1  19 -25  195.28   12.90
 -25  19  -1  197.28   13.30
 -19  25  -1  199.78   13.50
  -1  19 -25  202.48   13.20
 -25  19   1  207.58   13.30
 -19  25   3    2.90    5.60
 -25  19  -3    7.00    5.60
   3  19 -25   -5.50    5.90
  -3  25 -19   -7.40    5.10
 -19  25  -3    6.30    5.40
  -3  19 -25    4.90    5.00
 -25  19  -5    6.20    5.80
 -19   5 -25   11.50    5.60
  -5  25 -19   -0.90    5.30
   5  19 -25    6.60    5.10
 -19  25  -5   12.40    5.50
 -25   5 -19   -0.50    6.60
  -5  19 -25    9.90    5.30
  -7  25 -19  102.89   12.60
 -25  19  -7  129.99   12.50
 -19   7 -25  106.09   12.80
 -25   7 -19  134.59   13.30
 -19  25  -7  106.39   12.40
  -7  19 -25  133.09   12.20
 -25  19  -9  203.58   15.70
  -9  25 -19  219.48   15.80
 -19   9 -25  205.38   15.30
  -9  19 -25  235.38   15.40
 -25   9 -19  202.08   16.30
 -19  25  -9  192.88   15.50
 -11  25 -19   24.90    7.10
 -25  19 -11   10.00    7.40
 -19  11 -25   10.50    6.50
 -25  11 -19    2.10    6.70
 -11  19 -25   13.70    6.60
 -19  25 -11   19.30    7.40
 -13  25 -19  -11.50    6.60
 -25  19 -13    3.10    7.20
 -19  25 -13    9.50    7.80
 -13  19 -25   -1.60    7.10
 -25  13 -19    0.50    7.60
  -1  25 -21   38.50    7.10
 -25  21  -1   33.80    6.60
   1  21 -25   43.20    7.00
   1  25 -21   37.20    7.00
  -1  21 -25   37.50    7.00
 -21  25  -1   40.30    7.10
  -3  25 -21    6.90    6.40
   3  21 -25   22.40    5.70
 -25  21  -3    9.20    6.00
  -3  21 -25   19.50    6.70
   3  25 -21    8.70    5.90
 -21  25  -3    8.30    6.30
 -25  21  -5   14.60    6.20
  -5  25 -21   22.50    6.40
   5  21 -25   15.40    6.50
 -25   5 -21   23.70    6.50
 -21  25  -5   13.70    6.80
  -5  21 -25    0.00    6.20
 -21   7 -25   19.80    7.40
 -25  21  -7   16.80    6.90
  -7  25 -21   24.00    9.30
 -25   7 -21   24.90    7.70
 -21  25  -7    6.20    7.00
  -7  21 -25   11.10    6.30
 -25  21  -9   45.90    8.30
 -21   9 -25   32.10    8.10
 -25   9 -21   45.80    8.60
  -9  21 -25   41.50    7.90
 -21  25  -9   44.70    8.90
 -25  21 -11  -11.20    7.40
 -25  11 -21    1.80   12.40
 -21  25 -11   -5.80    7.40
   1  23 -25  140.09   13.40
  -1  25 -23  147.39   13.90
   1  25 -23  152.48   13.80
  -1  23 -25  139.29   13.90
 -25  23  -3   -6.70    6.50
   3  23 -25   -2.30    6.40
  -3  25 -23   -3.20    6.60
 -23  25  -3   -9.90    6.60
   3  25 -23   -7.10    6.90
  -3  23 -25   18.80    7.10
  -5  25 -23    4.40    8.10
 -25  23  -5  -10.70    6.90
 -23  25  -5   11.80    7.50
  -5  23 -25   -6.60    7.00
   5  25 -23   -9.20    7.00
 -26   2   0  306.17   15.20
 -26   2  -2   82.69    7.90
 -26   4   0   92.49    8.30
 -26   4  -2   -5.50    3.30
 -26   4   2   -7.60    3.20
 -26   2  -4   -2.30    3.70
 -26   4  -4   39.30    5.40
 -26   6   0  374.36   17.90
 -26   6  -2   57.09    7.50
  -2   6 -26   52.49    4.80
 -26   6   2   53.79    6.90
 -26   2  -6   57.29    7.20
 -26   6  -4    2.00    4.00
  -4   6 -26   -1.00    2.80
 -26   6   4    0.40    3.50
 -26   4  -6    7.80    4.20
 -26   6   6   25.50    4.70
 -26   6  -6   24.10    5.10
  -6   6 -26   25.30    4.00
 -26   8   0  828.32   33.80
   0   8 -26  821.52   31.80
 -26   8  -2  366.96   18.00
 -26   8   2  359.96   17.20
  -2   8 -26  372.86   15.70
 -26   8  -4  108.99    9.60
  -4   8 -26  114.89    7.80
 -26   8   4  116.09    8.70
 -26   8  -6  309.67   17.80
  -8   6 -26  335.27   15.40
 -26   6  -8  289.97   19.60
 -26   8   6  355.56   15.70
  -6   8 -26  320.77   15.10
  -8   8 -26  708.13   28.60
 -26   8  -8  677.73   30.20
 -26  10   0  448.06   20.70
   0  10 -26  465.65   18.90
 -26  10  -2   93.69    9.10
 -26  10   2   95.69    8.40
 -26   2 -10   89.09   10.30
  -2  10 -26  108.19    7.70
 -10   4 -26    9.60    3.60
 -26  10  -4   -1.40    4.00
 -26  10   4    5.10    3.90
 -26   4 -10    6.50    4.60
  -4  10 -26   11.50    3.80
 -10   6 -26  114.19    8.70
 -26  10  -6   84.19   12.70
 -26  10   6   84.59    7.90
 -26   6 -10   92.29   10.10
  -6  10 -26  101.99    8.40
 -10   8 -26  301.97   15.50
 -26  10  -8  301.77   16.90
 -26   8 -10  309.57   17.20
  -8  10 -26  310.37   15.60
 -10  10 -26  128.99   10.40
 -26  10 -10  129.19   11.80
   0  12 -26   96.79    7.60
 -26  12   0   96.59    8.90
   2  12 -26   -1.60    3.50
 -26  12  -2    5.70    4.30
 -26   2 -12    9.30    4.70
  -2  12 -26    3.20    3.60
 -26  12   2   -0.70    4.00
 -12   4 -26  107.89    8.70
 -26  12   4   94.09    8.60
 -26   4 -12   97.29   10.70
  -4  12 -26  102.49    8.70
 -26  12  -6    5.30    4.70
 -12   6 -26    2.90    4.90
  -6  12 -26    5.60    4.10
 -26  12   6    8.20    4.10
 -26   6 -12   10.00    5.40
 -26  12  -8   39.00    6.50
 -12   8 -26   39.30    5.80
 -26   8 -12   23.60    5.90
  -8  12 -26   22.50    5.10
 -12  10 -26   -0.30    4.70
 -26  12 -10    0.90    5.30
 -26  10 -12    3.70    5.50
 -10  12 -26   -3.70    4.80
 -12  26 -12   86.09   11.10
 -26  12 -12   65.99    8.50
 -12  12 -26   96.69   10.30
 -26  14   0  197.18   12.50
   0  14 -26  204.88   11.30
   2  14 -26   22.60    4.20
 -26   2 -14   29.70    5.70
  -2  14 -26   25.60    4.70
 -26  14   2   16.80    5.10
 -26  14  -4    1.00    4.70
 -26  14   4   10.50    4.50
 -26   4 -14    9.00    5.70
 -14   6 -26   30.50    5.60
 -26  14  -6   23.10    5.90
 -26   6 -14   33.90    6.70
  -6  14 -26   28.40    5.50
 -26  14  -8  152.18   12.90
 -14   8 -26  143.39   11.90
  -8  14 -26  163.48   11.70
 -26   8 -14  153.48   13.40
 -10  26 -14   42.80    7.00
 -14  10 -26   26.70    5.90
 -26  14 -10   44.00    7.00
 -14  26 -10   28.20    6.30
 -10  14 -26   31.20    6.00
 -26  10 -14   36.00    7.30
 -14  12 -26   13.80    6.10
 -12  26 -14   23.00    6.50
 -26  14 -12   12.80    6.30
 -12  14 -26   12.90    6.00
 -26  12 -14   12.40    6.80
 -14  26 -12   20.60    6.40
 -14  14 -26   -4.40    6.30
 -14  26 -14   -6.50    6.20
 -26  14 -14   11.30    7.10
   0  16 -26  511.75   23.60
   2  16 -26  275.77   14.00
 -26  16  -2  277.17   15.50
 -26  16   2  250.47   14.60
  -2  16 -26  276.47   14.80
 -26  16  -4   99.19   10.30
 -26  16   4   88.19    9.30
 -26   4 -16   68.79    9.40
  -4  16 -26   87.19    9.40
 -26  16  -6  187.58   13.50
 -16   6 -26  179.38   13.70
 -26   6 -16  195.08   14.90
  -6  16 -26  163.78   12.60
 -16  26  -6  190.48   13.20
 -26  16  -8  563.14   26.60
 -16   8 -26  551.64   25.90
  -8  26 -16  578.44   26.70
 -16  26  -8  552.14   26.50
 -26   8 -16  570.64   27.50
  -8  16 -26  549.65   25.40
 -26  16 -10  284.57   18.20
 -16  10 -26  306.67   17.60
 -10  26 -16  283.07   17.70
 -10  16 -26  282.87   17.00
 -16  26 -10  312.17   18.40
 -26  10 -16  291.57   18.50
 -12  26 -16   22.90    7.20
 -26  16 -12   37.20    8.00
 -16  12 -26   23.50    7.00
 -12  16 -26   10.10    6.50
 -26  12 -16   43.20    8.70
 -16  26 -12   19.70    7.30
 -16  14 -26  157.08   14.60
 -14  26 -16  112.99   14.40
 -26  16 -14  125.39   14.80
 -26  14 -16  129.79   15.50
 -16  26 -14  141.09   15.10
 -14  16 -26  160.58   13.80
 -16  16 -26  339.67   26.10
 -26  16 -16  379.66   27.40
 -16  26 -16  412.96   29.50
 -26  18   0  300.77   16.40
   0  18 -26  279.47   15.50
 -26  18  -2  107.19   11.50
   2  18 -26  118.39    9.90
 -26  18   2  120.89   12.20
 -18  26  -2  112.59   11.20
  -2  18 -26  101.59   10.70
 -26  18  -4    4.80    5.90
  -4  26 -18    6.40    5.70
 -26   4 -18   14.60    5.90
  -4  18 -26    0.90    5.40
 -18  26  -4   11.40    5.50
  -6  26 -18   68.89    8.60
 -18   6 -26   72.99    9.00
 -26  18  -6   93.49   11.70
  -6  18 -26   62.89    7.70
 -26   6 -18   76.59    9.30
 -18  26  -6   96.29   11.30
 -26  18  -8  343.87   19.60
 -18   8 -26  338.17   19.30
  -8  26 -18  317.47   19.40
 -18  26  -8  328.97   19.70
  -8  18 -26  349.27   18.80
 -26   8 -18  355.46   20.50
 -10  26 -18  153.58   14.30
 -18  10 -26  134.29   14.10
 -26  18 -10  189.28   15.00
 -10  18 -26  157.48   13.70
 -18  26 -10  145.09   14.60
 -26  10 -18  154.98   15.40
 -26  18 -12   15.40    8.00
 -18  12 -26   30.30    7.40
 -12  26 -18   29.70    7.60
 -12  18 -26    3.10    6.90
 -26  12 -18   14.10    7.80
 -18  26 -12   19.80    7.40
 -26  18 -14   19.60   10.00
   0  26 -20   77.39    8.50
   0  20 -26   71.19    7.80
 -20  26   0   78.59    8.60
 -26  20  -2   -5.40    5.70
   2  20 -26    2.30    5.50
  -2  26 -20    7.40    6.00
  -2  20 -26   -6.90    5.70
 -20  26  -2   -3.50    6.20
  -4  26 -20    8.40    6.90
 -26  20  -4   18.60    6.70
 -20  26  -4   22.40    7.10
  -4  20 -26   35.90    6.90
  -6  26 -20    2.50    6.40
 -26  20  -6    0.60    6.50
 -20   6 -26   13.00    6.40
  -6  20 -26    3.90    6.40
 -26   6 -20   -1.00    7.40
 -20  26  -6    9.80    6.60
 -26  20  -8   77.19    9.80
 -20   8 -26   80.99   10.10
  -8  20 -26  107.79   12.40
 -20  26  -8   71.69    9.50
 -26   8 -20   69.69    9.70
 -20  10 -26   23.10    8.10
 -26  20 -10   36.20    8.50
 -10  26 -20    5.50    7.60
 -10  20 -26    0.20    7.10
 -26  10 -20    9.80    8.10
 -20  26 -10    5.10    7.40
   0  26 -22   44.50    8.20
   0  22 -26   53.59    7.70
 -26  22  -2   10.20    7.20
  -2  26 -22   -8.10    6.80
   2  22 -26    9.00    6.70
 -22  26  -2   -0.80    6.70
  -2  22 -26    9.30    6.90
   2  26 -22   -6.40    6.50
 -26  22  -4   36.30    8.10
  -4  22 -26   26.90    7.60
 -22  26  -4   24.00    8.10
   4  26 -22   39.00    7.80
 -26  22  -6   -4.90   10.60
  -6  22 -26    1.60    7.30
   6  26 -22   -2.10    6.80
 -27   3  -1   10.30    4.10
 -27   3   1    5.30    3.60
 -27   3  -3   30.90    5.80
 -27   5  -1    1.60    4.10
 -27   5   1    2.40    3.80
 -27   5  -3  118.89    9.50
 -27   5   3   89.19    9.30
 -27   3  -5   90.09   10.20
 -27   5   5  282.17   14.00
 -27   5  -5  256.47   16.60
 -27   7  -1  246.88   14.10
 -27   7   1  250.77   13.70
 -27   7  -3   22.90    5.20
 -27   7   3   26.50    4.90
  -3   7 -27   34.10    4.00
 -27   3  -7   19.60    5.90
 -27   5  -7    8.60    4.70
  -5   7 -27    1.80    3.30
 -27   7   5   -1.20    3.90
 -27   7  -7  314.97   17.40
 -27   7   7  309.17   15.90
  -7   7 -27  326.47   15.10
 -27   9  -1  209.18   12.90
 -27   9   1  204.28   12.40
 -27   9  -3   39.20    6.50
 -27   9   3   31.50    5.30
 -27   3  -9   40.20    7.00
  -3   9 -27   27.80    4.20
  -9   5 -27    5.90    3.50
 -27   9  -5   -5.00    4.70
 -27   9   5   -0.90    3.80
 -27   5  -9    0.00    4.50
  -5   9 -27    6.40    3.70
  -9   7 -27  259.07   13.40
 -27   9  -7  239.98   15.20
  -7   9 -27  263.47   13.30
 -27   9   7  240.68   13.40
 -27   7  -9  225.78   15.30
  -9   9 -27  204.48   13.60
 -27   9  -9  209.98   14.40
 -27  11  -1   29.60    5.70
  -1  11 -27   25.40    4.10
 -27  11   1   22.90    5.30
 -27  11  -3   38.10    8.20
 -27  11   3   38.90    5.70
 -27   3 -11   37.20    7.60
  -3  11 -27   34.60    5.00
 -11   5 -27  138.09    9.40
 -27  11  -5  102.69   10.90
 -27  11   5  118.99    9.60
  -5  11 -27  124.89    9.50
 -27   5 -11  110.29   11.60
 -27  11  -7    4.50    5.20
 -27   7 -11    4.60    5.20
  -7  11 -27    3.20    4.90
 -27  11  -9    6.70    5.40
 -11   9 -27   11.20    5.00
  -9  11 -27    5.80    4.80
 -27   9 -11   13.60    5.50
 -11  11 -27   35.30    6.40
 -27  11 -11   40.40    6.90
  -1  13 -27   -7.70    3.70
 -27  13   1   -6.00    4.30
 -27  13  -3  110.09   10.50
 -27   3 -13  123.49   11.60
  -3  13 -27  100.69    8.80
 -27  13   3   95.79    9.70
 -13   5 -27  212.48   12.80
 -27  13  -5  198.88   13.90
 -27  13   5  220.48   12.80
 -27   5 -13  207.58   15.20
 -13   7 -27    7.40    5.00
 -27  13  -7   -4.00    5.00
  -7  13 -27   -1.80    4.70
 -27   7 -13   -4.20    5.50
 -27  13  -9   -3.30    5.80
 -13   9 -27   -7.40    5.10
 -27   9 -13    6.20    6.30
  -9  13 -27    1.30    5.20
 -11  27 -13  132.99   12.40
 -13  11 -27  121.19   11.90
 -27  13 -11  119.39   13.40
 -27  11 -13   95.19   13.00
 -11  13 -27  107.99   11.60
 -13  27 -11  139.99   12.60
 -13  13 -27  140.59   12.80
 -13  27 -13  102.59   12.80
 -27  13 -13  108.09   13.40
 -27  15  -1  150.58   11.70
  -1  15 -27  149.39   10.60
 -27  15   1  112.09   13.90
 -27  15  -3    5.40    5.20
 -27   3 -15   19.60    6.30
 -27  15   3    7.60    5.00
  -3  15 -27   10.90    4.90
 -27  15  -5   -1.80    5.20
 -27   5 -15    1.90    6.80
  -5  15 -27   -4.50    4.90
 -15   7 -27   90.79   11.40
 -27  15  -7   82.69   11.20
  -7  15 -27  107.29   10.70
 -27   7 -15  134.69   13.20
 -27  15  -9  115.79   12.70
  -9  27 -15   80.29    9.40
 -15   9 -27  106.69   11.80
 -15  27  -9   88.19   11.70
 -27   9 -15  125.09   13.70
  -9  15 -27  113.99   11.40
 -11  27 -15   12.70    6.40
 -15  11 -27   -3.30    5.90
 -27  15 -11    1.40    6.40
 -27  11 -15   12.60    6.90
 -15  27 -11    3.50    6.60
 -11  15 -27    8.90    6.40
 -15  13 -27    1.90    6.80
 -27  15 -13  -11.00    7.00
 -13  27 -15    3.50    7.40
 -27  13 -15   10.50    7.60
 -15  27 -13   -4.30    7.00
 -13  15 -27   -9.90    6.30
 -15  27 -15   56.09    9.70
 -27  15 -15   77.49   10.70
 -27  17  -1  170.98   13.10
  -1  17 -27  161.28   11.80
 -27  17   1  181.38   16.40
 -27  17  -3   32.70    6.60
 -17  27  -3   40.50    6.80
  -3  17 -27   45.10    6.50
 -27  17  -5    1.10    5.60
  -5  17 -27    2.70    5.70
 -27   5 -17   -8.80    6.70
 -17  27  -5    2.30    5.80
 -17   7 -27  189.68   15.10
 -27  17  -7  158.88   14.10
  -7  27 -17  179.18   14.40
 -27   7 -17  159.18   15.40
  -7  17 -27  163.18   13.70
 -17  27  -7  191.28   14.70
  -9  27 -17  244.98   16.50
 -27  17  -9  228.78   16.90
 -17   9 -27  242.68   16.40
 -27   9 -17  250.97   17.70
 -17  27  -9  216.28   16.90
  -9  17 -27  219.28   15.80
 -17  11 -27   10.00    7.10
 -11  27 -17   31.80    7.60
 -27  17 -11   21.20    7.80
 -11  17 -27   20.70    7.10
 -17  27 -11   34.90    8.30
 -27  11 -17   23.30    7.60
 -27  17 -13  -12.20    7.20
 -17  13 -27   15.70    7.80
 -27  13 -17   14.50   10.40
 -17  27 -13   11.50    8.60
 -13  17 -27   25.00    7.10
 -27  19  -1   24.40    7.40
  -1  19 -27   33.40    6.30
 -19  27  -1   31.40    6.50
  -3  27 -19   -7.00    6.00
 -27  19  -3   16.50    7.00
  -3  19 -27    4.90    6.10
 -19  27  -3    9.80    6.50
  -5  27 -19    8.80    6.80
 -27  19  -5   26.40    7.00
 -19  27  -5   10.10    6.70
  -5  19 -27   18.30    6.60
 -27   5 -19   31.80    7.30
 -19   7 -27   36.40    7.40
 -27  19  -7   58.69    8.70
 -19  27  -7   49.20    8.60
  -7  19 -27   37.50    7.90
 -27   7 -19   51.39    9.40
 -27  19  -9   76.09    9.90
  -9  27 -19   53.09    8.40
 -19   9 -27   53.99    8.90
  -9  19 -27   59.49    8.60
 -27   9 -19   69.19   10.10
 -19  27  -9   61.89    9.70
  -1  27 -21    3.50    7.30
 -21  27  -1   20.20    8.40
   1  27 -21   15.30    7.20
  -1  21 -27   19.20    7.00
 -27  21  -3  109.49   10.90
  -3  21 -27  104.39   13.20
 -21  27  -3  107.49   13.80
   3  27 -21  130.99   13.70
 -27  21  -5   98.69   11.80
  -5  21 -27  129.39   13.60
 -21  27  -5  121.69   13.80
 -28   4   0   88.79    9.30
 -28   4  -2  141.79   11.70
 -28   4   2  146.09   10.30
 -28   4  -4  417.66   22.80
 -28   6   0    7.10    4.80
 -28   6  -2   47.10    6.80
 -28   6   2   45.20    6.50
 -28   6  -4  343.67   18.00
 -28   6   4  346.97   17.60
 -28   4  -6  314.37   18.30
 -28   6  -6  158.58   12.40
 -28   8   0  153.48   11.40
 -28   8   2   54.09    6.70
 -28   8  -4    6.10    5.20
 -28   8   4    4.30    4.60
 -28   4  -8    2.00    5.70
 -28   8  -6   11.90    5.40
  -6   8 -28    6.00    4.10
 -28   6  -8   18.50    5.80
 -28   8   6    6.40    4.60
  -8   8 -28  204.38   12.00
 -28   8  -8  196.28   14.50
 -28  10   0   37.10    7.10
 -28  10  -2    1.20    4.90
 -28  10   2   -3.30    4.30
 -28  10  -4   80.09   10.30
  -4  10 -28   90.89    8.00
 -28   4 -10   84.29    9.10
 -28  10   4   71.59    9.20
 -10   6 -28   32.50    4.90
 -28  10  -6   21.70    6.30
 -28  10   6   36.40    5.90
 -28   6 -10   32.10    6.90
  -6  10 -28   33.60    5.20
 -28  10  -8   20.10    6.20
 -10   8 -28   20.10    5.70
  -8  10 -28   25.80    5.40
 -28   8 -10   17.30    6.40
 -28  10 -10    0.60    5.70
 -10  10 -28   -3.30    5.10
 -28  12   0    4.80    5.30
 -28  12  -2   92.19   10.10
 -28  12   2   73.19    9.40
 -28  12  -4  424.26   21.30
 -28   4 -12  411.26   22.80
 -28  12   4  448.56   20.60
  -4  12 -28  429.26   19.40
 -28  12  -6  257.27   16.30
 -12   6 -28  298.57   14.90
  -6  12 -28  271.67   14.70
 -28   6 -12  248.78   17.10
 -28  12  -8   22.60    6.40
 -12   8 -28   16.60    5.60
 -28   8 -12   25.80    7.00
  -8  12 -28   29.70    5.80
 -28  12 -10  121.39   13.10
 -12  10 -28   86.89   11.40
 -28  10 -12  114.69   13.20
 -10  12 -28  102.19   11.50
 -28  12 -12  297.17   19.30
 -12  28 -12  271.57   18.10
 -12  12 -28  296.37   17.30
 -28  14   0    1.20    5.10
 -28  14  -2   17.40    6.20
 -28  14   2   20.30    6.40
 -28  14  -4  208.58   14.60
  -4  14 -28  223.58   13.10
 -28   4 -14  201.68   15.50
 -28  14   4  241.68   19.40
 -14   6 -28   99.79   10.70
 -28  14  -6  104.79   11.90
  -6  14 -28  113.99   10.70
 -28   6 -14  110.59   12.90
 -28  14  -8   -9.10    6.20
 -14   8 -28    8.40    6.20
  -8  14 -28    1.10    5.60
 -28   8 -14   -0.50    6.30
 -14  10 -28   29.40    7.10
 -28  14 -10   34.70    7.90
 -10  28 -14   49.60    7.90
 -28  10 -14   34.60    8.20
 -10  14 -28   53.19    7.30
 -14  28 -10   46.90    8.20
 -12  28 -14  187.28   15.60
 -14  12 -28  167.08   15.00
 -28  14 -12  188.58   16.60
 -12  14 -28  205.68   15.40
 -14  28 -12  198.28   16.00
 -28  12 -14  197.08   17.20
 -28  14 -14   42.90    9.20
 -14  28 -14   58.59    9.60
 -14  14 -28   52.89    8.60
 -28  16   0   36.80    6.70
 -28  16  -2    4.00    6.00
  -2  16 -28   10.70    7.70
 -28  16  -4   33.30    7.40
 -28   4 -16   28.20    7.00
  -4  16 -28   28.20    6.00
 -28  16  -6    5.70    6.50
 -16  28  -6   15.40    6.30
  -6  16 -28    8.70    5.70
 -28   6 -16   -2.70    7.00
  -8  28 -16   62.59    8.10
 -28  16  -8   66.09    9.20
 -16   8 -28   72.49    9.20
 -28   8 -16   57.39    9.20
 -16  28  -8   63.19    8.40
  -8  16 -28   64.99    8.00
 -10  28 -16   15.60    7.20
 -28  16 -10   10.10    7.60
 -16  10 -28   14.90    7.20
 -10  16 -28   24.60    7.20
 -28  10 -16    3.10    7.40
 -16  28 -10   14.00    7.40
 -16  12 -28   17.50    7.70
 -28  16 -12   26.50    8.50
 -12  28 -16   21.60   10.10
 -12  16 -28   17.30    7.80
 -28  12 -16   19.30    9.70
 -16  28 -12   18.00    7.90
 -18  28   0   15.00    6.50
 -28  18  -2   13.00    6.60
  -2  18 -28    5.70    7.80
 -18  28  -2    6.50    6.30
  -4  28 -18   44.30    8.40
 -28  18  -4   23.80    7.10
  -4  18 -28   28.80    6.80
 -18  28  -4   44.60    7.70
 -28  18  -6   -3.40    7.00
  -6  28 -18   -8.00    6.30
 -18  28  -6    9.80    7.10
  -6  18 -28   13.10    6.70
 -28   6 -18   24.60    8.50
  -8  28 -18   53.79    8.90
 -18   8 -28   60.69    9.50
 -28  18  -8   65.69    9.70
 -18  28  -8   51.59    8.80
 -28   8 -18   47.10    9.50
 -20  28  -2   98.39   11.10
 -28  20  -4  246.88   22.20
 -20  28  -4  264.47   19.80
 -29   5  -1   89.49   10.20
 -29   5  -3  459.85   22.90
 -29   3  -5  465.45   22.40
 -29   5  -5  575.84   26.90
 -29   7  -1    0.80    4.60
 -29   7   1   -1.40    7.50
 -29   7  -3  152.58   12.50
 -29   7   3  166.08   12.60
 -29   3  -7  193.68   13.40
 -29   7  -5  181.48   14.00
 -29   7   5  232.98   13.20
 -29   5  -7  190.18   14.80
 -29   7  -7    8.00    6.00
 -29   9  -1   47.80    6.70
 -29   9  -3   13.70    5.40
 -29   9   3   22.10    5.40
 -29   3  -9   12.60    5.60
 -29   9  -5    9.00    5.60
 -29   9   5   21.10    5.40
 -29   5  -9    6.90    6.10
 -29   9  -7    7.10    5.70
 -29   7  -9    2.70    5.90
  -9   9 -29   58.69    6.70
 -29   9  -9   57.59    8.80
 -29  11  -1   -0.30    5.30
 -29  11   1    9.60    5.10
 -29  11  -3  205.78   14.20
 -29  11  -5  253.67   16.30
 -29   5 -11  251.27   17.80
 -29  11  -7  102.29   12.10
 -11   7 -29  103.29    9.70
  -7  11 -29   82.49    9.90
 -29   7 -11   82.59    9.60
 -11   9 -29   18.40    6.00
 -29  11  -9   16.70    6.80
 -29   9 -11    1.70    6.50
  -9  11 -29   15.50    5.70
 -11  11 -29  122.29   12.40
 -29  11 -11  154.68   14.20
 -29  13  -1   53.29    7.60
 -29  13   1   71.69    7.70
 -29  13  -3  418.06   21.80
 -29  13   3  443.06   21.70
 -29  13  -5  505.55   25.00
 -29   5 -13  520.45   26.80
 -29  13  -7  216.28   15.90
 -29   7 -13  222.18   16.80
  -7  13 -29  198.78   14.10
 -29  13  -9   89.59   10.10
 -13   9 -29   93.49   12.30
  -9  13 -29   85.59   11.50
 -29   9 -13   87.29   10.00
 -13  11 -29  327.47   18.40
 -11  29 -13  315.27   19.40
 -29  13 -11  317.67   20.30
 -13  29 -11  312.37   19.40
 -11  13 -29  305.87   18.20
 -29  11 -13  305.67   20.50
 -13  13 -29  381.16   21.50
 -29  13 -13  423.56   23.30
 -13  29 -13  383.36   22.80
 -29  15  -1    0.00    6.10
 -29  15  -3  123.19   13.20
 -29  15  -5  179.88   15.00
 -29   5 -15  193.98   15.90
 -29  15  -7   58.49    8.60
 -15  29  -7   47.80    8.20
  -7  15 -29   43.50    7.30
 -29   7 -15   33.10    8.70
 -29  15  -9  -12.20    7.20
 -15   9 -29    1.90    7.20
  -9  29 -15    0.80    6.60
 -29   9 -15   11.50    7.90
 -15  29  -9   -6.40    6.80
  -9  15 -29   -1.00    6.60
 -15  11 -29   61.29    9.10
 -29  15 -11   44.30    9.50
 -11  29 -15   73.39   11.90
 -15  29 -11   56.09    9.10
 -29  11 -15   49.80   11.70
 -11  15 -29   67.99    9.30
 -29  17  -3   20.40    7.10
 -17  29  -3    2.80    6.40
 -29  17  -5   52.49    8.70
 -17  29  -5   57.29    8.40
 -29  17  -7   -2.80    7.80
  -7  29 -17   -9.40    7.40
 -17  29  -7   17.10    7.30
  -7  17 -29    5.60    6.70
 -29   7 -17   -0.60    9.10
 -30   4  -4  680.63   30.40
 -30   6   0    6.30    5.60
 -30   6  -2   91.79    9.40
 -30   6  -4  378.26   21.00
 -30   4  -6  424.16   20.80
 -30   6  -6  117.49   12.70
 -30   8   0   29.60    6.30
 -30   8  -2   -0.80    5.10
 -30   8   2    7.60    5.60
 -30   8  -4  110.89   11.80
 -30   8   4   97.09   12.20
 -30   4  -8  127.49   12.00
 -30   8  -6    9.20    6.20
 -30   6  -8   -1.80    6.20
 -30   8  -8    5.80    6.30
 -30  10   0   61.19    7.80
 -30  10  -2    0.30    5.80
 -30  10   2    5.50    5.40
 -30  10  -4   74.79    8.70
 -30   4 -10  115.29   12.10
 -30  10   4   77.69    8.50
 -30  10  -6   15.10    6.70
 -30   6 -10   13.30    7.10
 -30  10  -8   17.00    7.10
 -30   8 -10   13.90    7.00
 -30  10 -10   -3.00    6.90
 -30  12   0   11.50    6.00
 -30  12  -2  137.79   13.10
 -30  12  -4  529.15   25.80
 -30  12  -6  296.87   17.90
 -30   6 -12  276.97   20.10
 -30  12  -8  132.09   14.00
 -30   8 -12  100.19   11.50
 -30  12 -10  109.49   11.80
 -12  10 -30  106.79   12.60
 -30  10 -12  128.19   15.00
 -12  12 -30  396.36   21.30
 -30  12 -12  364.06   22.40
 -12  30 -12  358.76   23.60
 -30  14  -2  123.19   13.20
 -30  14   2  145.89   17.60
 -30  14  -4  391.56   21.60
 -30  14  -6  217.18   16.30
 -30   6 -14  197.38   17.40
 -30  14  -8   56.99    8.90
 -30   8 -14   82.89   10.90
 -14  10 -30   80.89    9.50
 -30  14 -10   51.59    9.50
 -14  30 -10   44.60    8.50
 -30  16  -2    6.50    7.30
 -30  16  -4   33.00    8.30
 -30  16  -6   20.30   12.20
 -31   5  -3  227.08   15.00
 -31   5  -5  271.27   16.70
 -31   7   1  104.89   11.60
 -31   7  -3   12.00    6.70
 -31   7  -5   23.70    7.00
 -31   5  -7   44.90    7.20
 -31   7  -7   20.70    7.70
 -31   9  -1   92.79   11.90
 -31   9   1   79.79    9.00
 -31   9  -3    9.50    6.60
 -31   9  -5   -0.30    6.70
 -31   5  -9   26.20    6.80
 -31   9  -7   50.69    8.70
 -31   7  -9   52.79    9.10
 -31   9  -9   76.49   10.00
 -31  11  -1    3.90    6.30
 -31  11  -3  106.29   10.90
 -31  11   3  128.59   15.60
 -31  11  -5  138.19   14.30
 -31   5 -11  152.38   15.00
 -31  11  -7   17.90    7.60
 -31   7 -11    6.80    8.10
 -31  11  -9    2.70    7.60
 -31   9 -11   -6.30    7.70
 -31  13  -1   10.60    6.90
 -31  13  -3  154.68   14.50
 -31  13  -5  226.68   17.00
 -31  13  -7   46.00   10.30
 -31   7 -13   41.50   10.40
 -31  15  -3   26.80   12.80
 -32   6  -4   33.00    6.90
 -32   6  -6   15.80    7.00
 -32   8   0  314.67   19.40
 -32   8  -2  116.49   11.90
 -32   8  -4   19.60    7.60
 -32   8  -6  131.29   15.70
 -32   6  -8  150.48   14.80
 -32   8  -8  357.66   22.60
 -32  10   0   96.19   10.00
 -32  10  -2    8.00    7.10
 -32  10  -4    8.90    7.40
 -32  10  -6    2.20    7.30
 -32   6 -10    6.60    7.50
 -32  10  -8   63.99    9.80
 -32   8 -10   70.79   10.70
 -32  12  -2   11.50    7.50
 -32  12  -4   65.59    9.90
 -33   7  -5  107.09   13.80
 -33   7  -7  380.46   21.90
 -33   9  -1  265.37   19.90
 -33   9  -3   17.60    9.10

_computing_structure_solution     'SHELXT 2014/4 (Sheldrick, 2014)'
;
_shelx_hkl_checksum              728

